/*---------------------------------------------------------------------------*\
  =========                 |
  \\      /  F ield         | OpenFOAM: The Open Source CFD Toolbox
   \\    /   O peration     | Website:  https://openfoam.org
    \\  /    A nd           | Version:  dev
     \\/     M anipulation  |
\*---------------------------------------------------------------------------*/
Build  : dev-dfb816c51134
Exec   : foamRun -parallel
Date   : Apr 15 2024
Time   : 22:50:30
Host   : "dpattisapu-aws-00013-1-0001"
PID    : 16123
I/O    : uncollated
Case   : /contrib/OpenFOAM-dev/tutorialsTest/fluid/squareBend
nProcs : 8
Slaves : 
7
(
"dpattisapu-aws-00013-1-0001.16124"
"dpattisapu-aws-00013-1-0001.16125"
"dpattisapu-aws-00013-1-0001.16127"
"dpattisapu-aws-00013-1-0002.15355"
"dpattisapu-aws-00013-1-0002.15356"
"dpattisapu-aws-00013-1-0002.15357"
"dpattisapu-aws-00013-1-0002.15359"
)

Pstream initialised with:
    floatTransfer      : false
    nProcsSimpleSum    : 0
    commsType          : nonBlocking
    polling iterations : 0
sigFpe : Enabling floating point exception trapping (FOAM_SIGFPE).
fileModificationChecking : Monitoring run-time modified files using timeStampMaster (fileModificationSkew 10)
allowSystemOperations : Allowing user-supplied system call operations

// * * * * * * * * * * * * * * * * * * * * * * * * * * * * * * * * * * * * * //
Create time

Create mesh for time = 0

Selecting solver fluid
Selecting thermodynamics package 
{
    type            hePsiThermo;
    mixture         pureMixture;
    transport       const;
    thermo          hConst;
    equationOfState perfectGas;
    specie          specie;
    energy          sensibleEnthalpy;
}

Selecting turbulence model type RAS
Selecting RAS turbulence model kEpsilon
RAS
{
    model           kEpsilon;
    turbulence      on;
    printCoeffs     on;
    Cmu             0.09;
    C1              1.44;
    C2              1.92;
    C3              0;
    sigmak          1;
    sigmaEps        1.3;
}

No MRF models present

Creating fvConstraints from "system/fvConstraints"

Selecting finite volume constraint type limitPressure
    Name: limitp
    min 11000
    max 220000

Selecting thermophysical transport type RAS
Selecting default RAS thermophysical transport model unityLewisEddyDiffusivity

PIMPLE: Convergence criteria found
        p: tolerance 0.001
        U: tolerance 0.0001
        h: tolerance 0.001
        "(k|epsilon)": tolerance 0.001


PIMPLE: Operating solver in steady-state mode with 1 outer corrector
PIMPLE: Operating solver in SIMPLE mode



Starting time loop

Time = 1s

DILUPBiCGStab:  Solving for Ux, Initial residual = 1, Final residual = 0.000167035, No Iterations 1
DILUPBiCGStab:  Solving for Uy, Initial residual = 1, Final residual = 0.00014677, No Iterations 1
DILUPBiCGStab:  Solving for Uz, Initial residual = 1, Final residual = 0.00014677, No Iterations 1
DILUPBiCGStab:  Solving for h, Initial residual = 1, Final residual = 0.000148666, No Iterations 1
GAMG:  Solving for p, Initial residual = 1, Final residual = 0.0995027, No Iterations 51
time step continuity errors : sum local = 72.2904, global = -72.2903, cumulative = -72.2903
DILUPBiCGStab:  Solving for epsilon, Initial residual = 0.618738, Final residual = 0.0172577, No Iterations 1
DILUPBiCGStab:  Solving for k, Initial residual = 1, Final residual = 0.0522845, No Iterations 1
ExecutionTime = 0.6 s  ClockTime = 1 s

Time = 2s

DILUPBiCGStab:  Solving for Ux, Initial residual = 0.0189237, Final residual = 6.05722e-05, No Iterations 1
DILUPBiCGStab:  Solving for Uy, Initial residual = 0.0816579, Final residual = 0.000537696, No Iterations 1
DILUPBiCGStab:  Solving for Uz, Initial residual = 0.995038, Final residual = 0.0024236, No Iterations 1
DILUPBiCGStab:  Solving for h, Initial residual = 0.825142, Final residual = 0.000179062, No Iterations 1
GAMG:  Solving for p, Initial residual = 0.653481, Final residual = 0.0633288, No Iterations 4
time step continuity errors : sum local = 141.13, global = -51.8905, cumulative = -124.181
DILUPBiCGStab:  Solving for epsilon, Initial residual = 0.906448, Final residual = 0.000919829, No Iterations 1
DILUPBiCGStab:  Solving for k, Initial residual = 0.00584344, Final residual = 0.00023133, No Iterations 1
ExecutionTime = 0.65 s  ClockTime = 1 s

Time = 3s

DILUPBiCGStab:  Solving for Ux, Initial residual = 0.0138035, Final residual = 0.000481884, No Iterations 2
DILUPBiCGStab:  Solving for Uy, Initial residual = 0.0614753, Final residual = 0.00197235, No Iterations 2
DILUPBiCGStab:  Solving for Uz, Initial residual = 0.517524, Final residual = 0.0428969, No Iterations 1
DILUPBiCGStab:  Solving for h, Initial residual = 0.502701, Final residual = 0.0271235, No Iterations 2
GAMG:  Solving for p, Initial residual = 0.237116, Final residual = 0.0155476, No Iterations 4
time step continuity errors : sum local = 92.6763, global = -47.6612, cumulative = -171.842
DILUPBiCGStab:  Solving for epsilon, Initial residual = 0.0790874, Final residual = 0.0044557, No Iterations 2
DILUPBiCGStab:  Solving for k, Initial residual = 0.418656, Final residual = 0.00762272, No Iterations 2
ExecutionTime = 0.71 s  ClockTime = 1 s

Time = 4s

DILUPBiCGStab:  Solving for Ux, Initial residual = 0.0112395, Final residual = 0.000476201, No Iterations 2
DILUPBiCGStab:  Solving for Uy, Initial residual = 0.0268308, Final residual = 0.00111329, No Iterations 2
DILUPBiCGStab:  Solving for Uz, Initial residual = 0.392626, Final residual = 0.0192356, No Iterations 2
DILUPBiCGStab:  Solving for h, Initial residual = 0.30667, Final residual = 0.0200766, No Iterations 2
GAMG:  Solving for p, Initial residual = 0.163844, Final residual = 0.0142861, No Iterations 2
time step continuity errors : sum local = 78.1991, global = -41.1021, cumulative = -212.944
DILUPBiCGStab:  Solving for epsilon, Initial residual = 0.0763848, Final residual = 0.00401876, No Iterations 2
DILUPBiCGStab:  Solving for k, Initial residual = 0.292657, Final residual = 0.0147668, No Iterations 1
ExecutionTime = 0.76 s  ClockTime = 1 s

Time = 5s

DILUPBiCGStab:  Solving for Ux, Initial residual = 0.011358, Final residual = 0.000400743, No Iterations 2
DILUPBiCGStab:  Solving for Uy, Initial residual = 0.0225803, Final residual = 0.00104223, No Iterations 2
DILUPBiCGStab:  Solving for Uz, Initial residual = 0.281849, Final residual = 0.0133787, No Iterations 2
DILUPBiCGStab:  Solving for h, Initial residual = 0.224321, Final residual = 0.0132487, No Iterations 2
GAMG:  Solving for p, Initial residual = 0.112389, Final residual = 0.009365, No Iterations 2
time step continuity errors : sum local = 62.8963, global = -32.8204, cumulative = -245.764
DILUPBiCGStab:  Solving for epsilon, Initial residual = 0.0471603, Final residual = 0.00246239, No Iterations 2
DILUPBiCGStab:  Solving for k, Initial residual = 0.203185, Final residual = 0.0167254, No Iterations 1
ExecutionTime = 0.81 s  ClockTime = 1 s

Time = 6s

DILUPBiCGStab:  Solving for Ux, Initial residual = 0.00930617, Final residual = 0.000433591, No Iterations 2
DILUPBiCGStab:  Solving for Uy, Initial residual = 0.017496, Final residual = 0.00095892, No Iterations 2
DILUPBiCGStab:  Solving for Uz, Initial residual = 0.224522, Final residual = 0.00984648, No Iterations 2
DILUPBiCGStab:  Solving for h, Initial residual = 0.192712, Final residual = 0.0115229, No Iterations 2
GAMG:  Solving for p, Initial residual = 0.0730587, Final residual = 0.00713627, No Iterations 2
time step continuity errors : sum local = 53.1841, global = -24.4589, cumulative = -270.223
DILUPBiCGStab:  Solving for epsilon, Initial residual = 0.0348969, Final residual = 0.00200728, No Iterations 2
DILUPBiCGStab:  Solving for k, Initial residual = 0.141469, Final residual = 0.0107344, No Iterations 1
ExecutionTime = 0.86 s  ClockTime = 1 s

Time = 7s

DILUPBiCGStab:  Solving for Ux, Initial residual = 0.00882329, Final residual = 0.000447411, No Iterations 2
DILUPBiCGStab:  Solving for Uy, Initial residual = 0.0148086, Final residual = 0.000777703, No Iterations 2
DILUPBiCGStab:  Solving for Uz, Initial residual = 0.175334, Final residual = 0.00721623, No Iterations 2
DILUPBiCGStab:  Solving for h, Initial residual = 0.158287, Final residual = 0.0089499, No Iterations 2
GAMG:  Solving for p, Initial residual = 0.0610295, Final residual = 0.00603149, No Iterations 2
time step continuity errors : sum local = 46.8738, global = -17.2793, cumulative = -287.503
DILUPBiCGStab:  Solving for epsilon, Initial residual = 0.0317745, Final residual = 0.00208768, No Iterations 2
DILUPBiCGStab:  Solving for k, Initial residual = 0.105762, Final residual = 0.00814057, No Iterations 1
ExecutionTime = 0.91 s  ClockTime = 1 s

Time = 8s

DILUPBiCGStab:  Solving for Ux, Initial residual = 0.0084302, Final residual = 0.000431445, No Iterations 2
DILUPBiCGStab:  Solving for Uy, Initial residual = 0.012877, Final residual = 0.000696818, No Iterations 2
DILUPBiCGStab:  Solving for Uz, Initial residual = 0.14484, Final residual = 0.00690672, No Iterations 2
DILUPBiCGStab:  Solving for h, Initial residual = 0.135219, Final residual = 0.00624756, No Iterations 2
GAMG:  Solving for p, Initial residual = 0.052428, Final residual = 0.00467166, No Iterations 2
time step continuity errors : sum local = 37.2403, global = -12.1091, cumulative = -299.612
DILUPBiCGStab:  Solving for epsilon, Initial residual = 0.0295836, Final residual = 0.001335, No Iterations 2
DILUPBiCGStab:  Solving for k, Initial residual = 0.0836428, Final residual = 0.00670793, No Iterations 1
ExecutionTime = 0.96 s  ClockTime = 1 s

Time = 9s

DILUPBiCGStab:  Solving for Ux, Initial residual = 0.00807191, Final residual = 0.000407236, No Iterations 2
DILUPBiCGStab:  Solving for Uy, Initial residual = 0.0110942, Final residual = 0.000610289, No Iterations 2
DILUPBiCGStab:  Solving for Uz, Initial residual = 0.126617, Final residual = 0.00659261, No Iterations 2
DILUPBiCGStab:  Solving for h, Initial residual = 0.114539, Final residual = 0.00492329, No Iterations 2
GAMG:  Solving for p, Initial residual = 0.0441351, Final residual = 0.0034951, No Iterations 2
time step continuity errors : sum local = 29.298, global = -8.58624, cumulative = -308.198
DILUPBiCGStab:  Solving for epsilon, Initial residual = 0.0269007, Final residual = 0.00105836, No Iterations 2
DILUPBiCGStab:  Solving for k, Initial residual = 0.0683935, Final residual = 0.00576894, No Iterations 1
ExecutionTime = 1.01 s  ClockTime = 1 s

Time = 10s

DILUPBiCGStab:  Solving for Ux, Initial residual = 0.00779055, Final residual = 0.000391611, No Iterations 2
DILUPBiCGStab:  Solving for Uy, Initial residual = 0.00977439, Final residual = 0.000555726, No Iterations 2
DILUPBiCGStab:  Solving for Uz, Initial residual = 0.113961, Final residual = 0.00593158, No Iterations 2
DILUPBiCGStab:  Solving for h, Initial residual = 0.0980289, Final residual = 0.00448475, No Iterations 2
GAMG:  Solving for p, Initial residual = 0.0375952, Final residual = 0.00283219, No Iterations 2
time step continuity errors : sum local = 25.6487, global = -6.6274, cumulative = -314.825
DILUPBiCGStab:  Solving for epsilon, Initial residual = 0.0238268, Final residual = 0.000900692, No Iterations 2
DILUPBiCGStab:  Solving for k, Initial residual = 0.0578446, Final residual = 0.00518308, No Iterations 1
ExecutionTime = 1.06 s  ClockTime = 1 s

Time = 11s

DILUPBiCGStab:  Solving for Ux, Initial residual = 0.0076615, Final residual = 0.000381468, No Iterations 2
DILUPBiCGStab:  Solving for Uy, Initial residual = 0.00905863, Final residual = 0.000517973, No Iterations 2
DILUPBiCGStab:  Solving for Uz, Initial residual = 0.102376, Final residual = 0.00531822, No Iterations 2
DILUPBiCGStab:  Solving for h, Initial residual = 0.0855934, Final residual = 0.00421356, No Iterations 2
GAMG:  Solving for p, Initial residual = 0.0333004, Final residual = 0.00272913, No Iterations 2
time step continuity errors : sum local = 25.5522, global = -5.8069, cumulative = -320.632
DILUPBiCGStab:  Solving for epsilon, Initial residual = 0.0209147, Final residual = 0.000783402, No Iterations 2
DILUPBiCGStab:  Solving for k, Initial residual = 0.0507066, Final residual = 0.00486928, No Iterations 1
ExecutionTime = 1.11 s  ClockTime = 2 s

Time = 12s

DILUPBiCGStab:  Solving for Ux, Initial residual = 0.00757181, Final residual = 0.000371403, No Iterations 2
DILUPBiCGStab:  Solving for Uy, Initial residual = 0.0089075, Final residual = 0.000495121, No Iterations 2
DILUPBiCGStab:  Solving for Uz, Initial residual = 0.0918162, Final residual = 0.00474359, No Iterations 2
DILUPBiCGStab:  Solving for h, Initial residual = 0.0763389, Final residual = 0.00403688, No Iterations 2
GAMG:  Solving for p, Initial residual = 0.0301733, Final residual = 0.00270801, No Iterations 2
time step continuity errors : sum local = 26.0241, global = -6.04703, cumulative = -326.679
DILUPBiCGStab:  Solving for epsilon, Initial residual = 0.018524, Final residual = 0.000704361, No Iterations 2
DILUPBiCGStab:  Solving for k, Initial residual = 0.0459137, Final residual = 0.00202763, No Iterations 2
ExecutionTime = 1.16 s  ClockTime = 2 s

Time = 13s

DILUPBiCGStab:  Solving for Ux, Initial residual = 0.00754739, Final residual = 0.000365038, No Iterations 2
DILUPBiCGStab:  Solving for Uy, Initial residual = 0.00898189, Final residual = 0.000484945, No Iterations 2
DILUPBiCGStab:  Solving for Uz, Initial residual = 0.0823609, Final residual = 0.00421201, No Iterations 2
DILUPBiCGStab:  Solving for h, Initial residual = 0.0694504, Final residual = 0.00376196, No Iterations 2
GAMG:  Solving for p, Initial residual = 0.0273158, Final residual = 0.00251946, No Iterations 2
time step continuity errors : sum local = 25.5538, global = -7.09409, cumulative = -333.773
DILUPBiCGStab:  Solving for epsilon, Initial residual = 0.0165255, Final residual = 0.000615832, No Iterations 2
DILUPBiCGStab:  Solving for k, Initial residual = 0.0423439, Final residual = 0.00261961, No Iterations 2
ExecutionTime = 1.2 s  ClockTime = 2 s

Time = 14s

DILUPBiCGStab:  Solving for Ux, Initial residual = 0.00757749, Final residual = 0.000352964, No Iterations 2
DILUPBiCGStab:  Solving for Uy, Initial residual = 0.00893498, Final residual = 0.000474621, No Iterations 2
DILUPBiCGStab:  Solving for Uz, Initial residual = 0.0733291, Final residual = 0.00362201, No Iterations 2
DILUPBiCGStab:  Solving for h, Initial residual = 0.0648858, Final residual = 0.00333421, No Iterations 2
GAMG:  Solving for p, Initial residual = 0.0247449, Final residual = 0.0022817, No Iterations 2
time step continuity errors : sum local = 24.9503, global = -8.54732, cumulative = -342.321
DILUPBiCGStab:  Solving for epsilon, Initial residual = 0.0150083, Final residual = 0.000558562, No Iterations 2
DILUPBiCGStab:  Solving for k, Initial residual = 0.0399731, Final residual = 0.00205459, No Iterations 2
ExecutionTime = 1.26 s  ClockTime = 2 s

Time = 15s

DILUPBiCGStab:  Solving for Ux, Initial residual = 0.0075147, Final residual = 0.000339455, No Iterations 2
DILUPBiCGStab:  Solving for Uy, Initial residual = 0.00865169, Final residual = 0.000453347, No Iterations 2
DILUPBiCGStab:  Solving for Uz, Initial residual = 0.0655932, Final residual = 0.00313496, No Iterations 2
DILUPBiCGStab:  Solving for h, Initial residual = 0.0615124, Final residual = 0.00275381, No Iterations 2
GAMG:  Solving for p, Initial residual = 0.0224853, Final residual = 0.00199648, No Iterations 2
time step continuity errors : sum local = 24.0599, global = -10.0364, cumulative = -352.357
DILUPBiCGStab:  Solving for epsilon, Initial residual = 0.013734, Final residual = 0.000498357, No Iterations 2
DILUPBiCGStab:  Solving for k, Initial residual = 0.0379542, Final residual = 0.00169626, No Iterations 2
ExecutionTime = 1.31 s  ClockTime = 2 s

Time = 16s

DILUPBiCGStab:  Solving for Ux, Initial residual = 0.00738908, Final residual = 0.000327684, No Iterations 2
DILUPBiCGStab:  Solving for Uy, Initial residual = 0.00820591, Final residual = 0.000424639, No Iterations 2
DILUPBiCGStab:  Solving for Uz, Initial residual = 0.0590629, Final residual = 0.00274368, No Iterations 2
DILUPBiCGStab:  Solving for h, Initial residual = 0.0586035, Final residual = 0.00218768, No Iterations 2
GAMG:  Solving for p, Initial residual = 0.0202759, Final residual = 0.00171848, No Iterations 2
time step continuity errors : sum local = 23.0184, global = -11.228, cumulative = -363.585
DILUPBiCGStab:  Solving for epsilon, Initial residual = 0.0126512, Final residual = 0.000452367, No Iterations 2
DILUPBiCGStab:  Solving for k, Initial residual = 0.0362747, Final residual = 0.00152336, No Iterations 2
ExecutionTime = 1.36 s  ClockTime = 2 s

Time = 17s

DILUPBiCGStab:  Solving for Ux, Initial residual = 0.00720006, Final residual = 0.000318409, No Iterations 2
DILUPBiCGStab:  Solving for Uy, Initial residual = 0.0077388, Final residual = 0.000396421, No Iterations 2
DILUPBiCGStab:  Solving for Uz, Initial residual = 0.0534753, Final residual = 0.00247542, No Iterations 2
DILUPBiCGStab:  Solving for h, Initial residual = 0.0559673, Final residual = 0.00192072, No Iterations 2
GAMG:  Solving for p, Initial residual = 0.0186183, Final residual = 0.00150551, No Iterations 2
time step continuity errors : sum local = 22.1533, global = -12.0041, cumulative = -375.589
DILUPBiCGStab:  Solving for epsilon, Initial residual = 0.0117612, Final residual = 0.0011671, No Iterations 1
DILUPBiCGStab:  Solving for k, Initial residual = 0.0349199, Final residual = 0.00140426, No Iterations 2
ExecutionTime = 1.41 s  ClockTime = 2 s

Time = 18s

DILUPBiCGStab:  Solving for Ux, Initial residual = 0.00694508, Final residual = 0.00030882, No Iterations 2
DILUPBiCGStab:  Solving for Uy, Initial residual = 0.00733667, Final residual = 0.000375021, No Iterations 2
DILUPBiCGStab:  Solving for Uz, Initial residual = 0.0480251, Final residual = 0.00225939, No Iterations 2
DILUPBiCGStab:  Solving for h, Initial residual = 0.0533044, Final residual = 0.00187946, No Iterations 2
GAMG:  Solving for p, Initial residual = 0.017503, Final residual = 0.00134448, No Iterations 2
time step continuity errors : sum local = 21.3644, global = -12.3714, cumulative = -387.961
DILUPBiCGStab:  Solving for epsilon, Initial residual = 0.0110705, Final residual = 0.000406427, No Iterations 2
DILUPBiCGStab:  Solving for k, Initial residual = 0.033829, Final residual = 0.00131411, No Iterations 2
ExecutionTime = 1.46 s  ClockTime = 2 s

Time = 19s

DILUPBiCGStab:  Solving for Ux, Initial residual = 0.00665839, Final residual = 0.000298292, No Iterations 2
DILUPBiCGStab:  Solving for Uy, Initial residual = 0.00702075, Final residual = 0.000360677, No Iterations 2
DILUPBiCGStab:  Solving for Uz, Initial residual = 0.0438529, Final residual = 0.00209328, No Iterations 2
DILUPBiCGStab:  Solving for h, Initial residual = 0.0506614, Final residual = 0.00187096, No Iterations 2
GAMG:  Solving for p, Initial residual = 0.0167098, Final residual = 0.00121041, No Iterations 2
time step continuity errors : sum local = 20.5131, global = -12.4037, cumulative = -400.365
DILUPBiCGStab:  Solving for epsilon, Initial residual = 0.0104954, Final residual = 0.000330953, No Iterations 2
DILUPBiCGStab:  Solving for k, Initial residual = 0.032951, Final residual = 0.0012463, No Iterations 2
ExecutionTime = 1.51 s  ClockTime = 2 s

Time = 20s

DILUPBiCGStab:  Solving for Ux, Initial residual = 0.00633866, Final residual = 0.000285339, No Iterations 2
DILUPBiCGStab:  Solving for Uy, Initial residual = 0.00674074, Final residual = 0.000349812, No Iterations 2
DILUPBiCGStab:  Solving for Uz, Initial residual = 0.0404356, Final residual = 0.00196868, No Iterations 2
DILUPBiCGStab:  Solving for h, Initial residual = 0.0481086, Final residual = 0.00184247, No Iterations 2
GAMG:  Solving for p, Initial residual = 0.0162352, Final residual = 0.00107438, No Iterations 2
time step continuity errors : sum local = 19.3694, global = -12.1533, cumulative = -412.518
DILUPBiCGStab:  Solving for epsilon, Initial residual = 0.0100932, Final residual = 0.000311058, No Iterations 2
DILUPBiCGStab:  Solving for k, Initial residual = 0.0322552, Final residual = 0.00121061, No Iterations 2
ExecutionTime = 1.56 s  ClockTime = 2 s

Time = 21s

DILUPBiCGStab:  Solving for Ux, Initial residual = 0.00602761, Final residual = 0.000270783, No Iterations 2
DILUPBiCGStab:  Solving for Uy, Initial residual = 0.0064764, Final residual = 0.000339234, No Iterations 2
DILUPBiCGStab:  Solving for Uz, Initial residual = 0.037607, Final residual = 0.0018656, No Iterations 2
DILUPBiCGStab:  Solving for h, Initial residual = 0.0457828, Final residual = 0.00179801, No Iterations 2
GAMG:  Solving for p, Initial residual = 0.0157986, Final residual = 0.000919768, No Iterations 2
time step continuity errors : sum local = 17.8195, global = -11.4501, cumulative = -423.968
DILUPBiCGStab:  Solving for epsilon, Initial residual = 0.00976313, Final residual = 0.000303784, No Iterations 2
DILUPBiCGStab:  Solving for k, Initial residual = 0.031684, Final residual = 0.00120912, No Iterations 2
ExecutionTime = 1.61 s  ClockTime = 2 s

Time = 22s

DILUPBiCGStab:  Solving for Ux, Initial residual = 0.0057436, Final residual = 0.000255997, No Iterations 2
DILUPBiCGStab:  Solving for Uy, Initial residual = 0.00621578, Final residual = 0.000327036, No Iterations 2
DILUPBiCGStab:  Solving for Uz, Initial residual = 0.0353921, Final residual = 0.00177334, No Iterations 2
DILUPBiCGStab:  Solving for h, Initial residual = 0.0437994, Final residual = 0.00174322, No Iterations 2
GAMG:  Solving for p, Initial residual = 0.0153011, Final residual = 0.000856388, No Iterations 2
time step continuity errors : sum local = 16.5907, global = -10.1991, cumulative = -434.167
DILUPBiCGStab:  Solving for epsilon, Initial residual = 0.00948937, Final residual = 0.000305064, No Iterations 2
DILUPBiCGStab:  Solving for k, Initial residual = 0.0311914, Final residual = 0.00124168, No Iterations 2
ExecutionTime = 1.66 s  ClockTime = 2 s

Time = 23s

DILUPBiCGStab:  Solving for Ux, Initial residual = 0.00543279, Final residual = 0.000240574, No Iterations 2
DILUPBiCGStab:  Solving for Uy, Initial residual = 0.00595272, Final residual = 0.000314335, No Iterations 2
DILUPBiCGStab:  Solving for Uz, Initial residual = 0.0335185, Final residual = 0.00167839, No Iterations 2
DILUPBiCGStab:  Solving for h, Initial residual = 0.0422625, Final residual = 0.00167692, No Iterations 2
GAMG:  Solving for p, Initial residual = 0.0147907, Final residual = 0.000954025, No Iterations 2
time step continuity errors : sum local = 16.3362, global = -9.01782, cumulative = -443.185
DILUPBiCGStab:  Solving for epsilon, Initial residual = 0.00926428, Final residual = 0.000314333, No Iterations 2
DILUPBiCGStab:  Solving for k, Initial residual = 0.0307639, Final residual = 0.0012988, No Iterations 2
ExecutionTime = 1.71 s  ClockTime = 2 s

Time = 24s

DILUPBiCGStab:  Solving for Ux, Initial residual = 0.00501673, Final residual = 0.000223752, No Iterations 2
DILUPBiCGStab:  Solving for Uy, Initial residual = 0.00565222, Final residual = 0.000298978, No Iterations 2
DILUPBiCGStab:  Solving for Uz, Initial residual = 0.0317865, Final residual = 0.00158428, No Iterations 2
DILUPBiCGStab:  Solving for h, Initial residual = 0.0411565, Final residual = 0.00160467, No Iterations 2
GAMG:  Solving for p, Initial residual = 0.0145093, Final residual = 0.000943832, No Iterations 2
time step continuity errors : sum local = 15.2168, global = -7.9924, cumulative = -451.177
DILUPBiCGStab:  Solving for epsilon, Initial residual = 0.00905584, Final residual = 0.000332027, No Iterations 2
DILUPBiCGStab:  Solving for k, Initial residual = 0.0303639, Final residual = 0.00137921, No Iterations 2
ExecutionTime = 1.76 s  ClockTime = 2 s

Time = 25s

DILUPBiCGStab:  Solving for Ux, Initial residual = 0.00470533, Final residual = 0.000208382, No Iterations 2
DILUPBiCGStab:  Solving for Uy, Initial residual = 0.00536003, Final residual = 0.000289995, No Iterations 2
DILUPBiCGStab:  Solving for Uz, Initial residual = 0.0301769, Final residual = 0.00150656, No Iterations 2
DILUPBiCGStab:  Solving for h, Initial residual = 0.040384, Final residual = 0.00152606, No Iterations 2
GAMG:  Solving for p, Initial residual = 0.014005, Final residual = 0.00093143, No Iterations 2
time step continuity errors : sum local = 13.9962, global = -7.10227, cumulative = -458.28
DILUPBiCGStab:  Solving for epsilon, Initial residual = 0.00884822, Final residual = 0.000367888, No Iterations 2
DILUPBiCGStab:  Solving for k, Initial residual = 0.0299337, Final residual = 0.00150873, No Iterations 2
ExecutionTime = 1.81 s  ClockTime = 2 s

Time = 26s

DILUPBiCGStab:  Solving for Ux, Initial residual = 0.00446958, Final residual = 0.00019517, No Iterations 2
DILUPBiCGStab:  Solving for Uy, Initial residual = 0.00508875, Final residual = 0.00028381, No Iterations 2
DILUPBiCGStab:  Solving for Uz, Initial residual = 0.02886, Final residual = 0.00144288, No Iterations 2
DILUPBiCGStab:  Solving for h, Initial residual = 0.0397325, Final residual = 0.00144948, No Iterations 2
GAMG:  Solving for p, Initial residual = 0.0134971, Final residual = 0.000852027, No Iterations 2
time step continuity errors : sum local = 12.4068, global = -6.23537, cumulative = -464.515
DILUPBiCGStab:  Solving for epsilon, Initial residual = 0.00862834, Final residual = 0.000485229, No Iterations 2
DILUPBiCGStab:  Solving for k, Initial residual = 0.029457, Final residual = 0.00168399, No Iterations 2
ExecutionTime = 1.86 s  ClockTime = 2 s

Time = 27s

DILUPBiCGStab:  Solving for Ux, Initial residual = 0.0042953, Final residual = 0.000183904, No Iterations 2
DILUPBiCGStab:  Solving for Uy, Initial residual = 0.00485551, Final residual = 0.000279287, No Iterations 2
DILUPBiCGStab:  Solving for Uz, Initial residual = 0.0277551, Final residual = 0.00139153, No Iterations 2
DILUPBiCGStab:  Solving for h, Initial residual = 0.0390484, Final residual = 0.00138335, No Iterations 2
GAMG:  Solving for p, Initial residual = 0.0129295, Final residual = 0.000808205, No Iterations 2
time step continuity errors : sum local = 11.1175, global = -5.40929, cumulative = -469.924
DILUPBiCGStab:  Solving for epsilon, Initial residual = 0.00839658, Final residual = 0.000375256, No Iterations 2
DILUPBiCGStab:  Solving for k, Initial residual = 0.0289153, Final residual = 0.00182552, No Iterations 2
ExecutionTime = 1.91 s  ClockTime = 2 s

Time = 28s

DILUPBiCGStab:  Solving for Ux, Initial residual = 0.00413252, Final residual = 0.000173845, No Iterations 2
DILUPBiCGStab:  Solving for Uy, Initial residual = 0.00464175, Final residual = 0.000272391, No Iterations 2
DILUPBiCGStab:  Solving for Uz, Initial residual = 0.0267884, Final residual = 0.00134695, No Iterations 2
DILUPBiCGStab:  Solving for h, Initial residual = 0.038125, Final residual = 0.00133572, No Iterations 2
GAMG:  Solving for p, Initial residual = 0.0123953, Final residual = 0.000768261, No Iterations 2
time step continuity errors : sum local = 9.94373, global = -4.58581, cumulative = -474.51
DILUPBiCGStab:  Solving for epsilon, Initial residual = 0.00808692, Final residual = 0.000353509, No Iterations 2
DILUPBiCGStab:  Solving for k, Initial residual = 0.0282824, Final residual = 0.00182856, No Iterations 2
ExecutionTime = 1.96 s  ClockTime = 2 s

Time = 29s

DILUPBiCGStab:  Solving for Ux, Initial residual = 0.00398595, Final residual = 0.000163149, No Iterations 2
DILUPBiCGStab:  Solving for Uy, Initial residual = 0.00445606, Final residual = 0.000263484, No Iterations 2
DILUPBiCGStab:  Solving for Uz, Initial residual = 0.0258221, Final residual = 0.00130234, No Iterations 2
DILUPBiCGStab:  Solving for h, Initial residual = 0.0370024, Final residual = 0.00128786, No Iterations 2
GAMG:  Solving for p, Initial residual = 0.0117958, Final residual = 0.000786897, No Iterations 2
time step continuity errors : sum local = 9.21693, global = -3.78632, cumulative = -478.296
DILUPBiCGStab:  Solving for epsilon, Initial residual = 0.00780174, Final residual = 0.000341135, No Iterations 2
DILUPBiCGStab:  Solving for k, Initial residual = 0.0276645, Final residual = 0.0016412, No Iterations 2
ExecutionTime = 2.01 s  ClockTime = 2 s

Time = 30s

DILUPBiCGStab:  Solving for Ux, Initial residual = 0.00383058, Final residual = 0.000152874, No Iterations 2
DILUPBiCGStab:  Solving for Uy, Initial residual = 0.00427168, Final residual = 0.000253396, No Iterations 2
DILUPBiCGStab:  Solving for Uz, Initial residual = 0.0249132, Final residual = 0.00124438, No Iterations 2
DILUPBiCGStab:  Solving for h, Initial residual = 0.0356956, Final residual = 0.00122868, No Iterations 2
GAMG:  Solving for p, Initial residual = 0.0112085, Final residual = 0.000806527, No Iterations 2
time step continuity errors : sum local = 8.60465, global = -3.05488, cumulative = -481.351
DILUPBiCGStab:  Solving for epsilon, Initial residual = 0.00752136, Final residual = 0.000318367, No Iterations 2
DILUPBiCGStab:  Solving for k, Initial residual = 0.0269703, Final residual = 0.00136004, No Iterations 2
ExecutionTime = 2.06 s  ClockTime = 2 s

Time = 31s

DILUPBiCGStab:  Solving for Ux, Initial residual = 0.00367673, Final residual = 0.000143462, No Iterations 2
DILUPBiCGStab:  Solving for Uy, Initial residual = 0.00408161, Final residual = 0.000241323, No Iterations 2
DILUPBiCGStab:  Solving for Uz, Initial residual = 0.0240022, Final residual = 0.00117257, No Iterations 2
DILUPBiCGStab:  Solving for h, Initial residual = 0.0342578, Final residual = 0.00116077, No Iterations 2
GAMG:  Solving for p, Initial residual = 0.0105779, Final residual = 0.000812708, No Iterations 2
time step continuity errors : sum local = 8.00056, global = -2.39484, cumulative = -483.746
DILUPBiCGStab:  Solving for epsilon, Initial residual = 0.00720105, Final residual = 0.000259347, No Iterations 2
DILUPBiCGStab:  Solving for k, Initial residual = 0.026183, Final residual = 0.00112368, No Iterations 2
ExecutionTime = 2.11 s  ClockTime = 3 s

Time = 32s

DILUPBiCGStab:  Solving for Ux, Initial residual = 0.00352437, Final residual = 0.000135359, No Iterations 2
DILUPBiCGStab:  Solving for Uy, Initial residual = 0.00389767, Final residual = 0.000228055, No Iterations 2
DILUPBiCGStab:  Solving for Uz, Initial residual = 0.023064, Final residual = 0.00109149, No Iterations 2
DILUPBiCGStab:  Solving for h, Initial residual = 0.0327512, Final residual = 0.00108841, No Iterations 2
GAMG:  Solving for p, Initial residual = 0.00992253, Final residual = 0.000789368, No Iterations 2
time step continuity errors : sum local = 7.31473, global = -1.836, cumulative = -485.582
DILUPBiCGStab:  Solving for epsilon, Initial residual = 0.00684289, Final residual = 0.000221652, No Iterations 2
DILUPBiCGStab:  Solving for k, Initial residual = 0.0253269, Final residual = 0.000965047, No Iterations 2
ExecutionTime = 2.15 s  ClockTime = 3 s

Time = 33s

DILUPBiCGStab:  Solving for Ux, Initial residual = 0.00337861, Final residual = 0.000128447, No Iterations 2
DILUPBiCGStab:  Solving for Uy, Initial residual = 0.00371971, Final residual = 0.000216304, No Iterations 2
DILUPBiCGStab:  Solving for Uz, Initial residual = 0.0221454, Final residual = 0.00100985, No Iterations 2
DILUPBiCGStab:  Solving for h, Initial residual = 0.0312157, Final residual = 0.00101722, No Iterations 2
GAMG:  Solving for p, Initial residual = 0.00925334, Final residual = 0.000745448, No Iterations 2
time step continuity errors : sum local = 6.57313, global = -1.33988, cumulative = -486.922
DILUPBiCGStab:  Solving for epsilon, Initial residual = 0.0064722, Final residual = 0.000202581, No Iterations 2
DILUPBiCGStab:  Solving for k, Initial residual = 0.0244346, Final residual = 0.000879004, No Iterations 2
ExecutionTime = 2.2 s  ClockTime = 3 s

Time = 34s

DILUPBiCGStab:  Solving for Ux, Initial residual = 0.00323988, Final residual = 0.000123373, No Iterations 2
DILUPBiCGStab:  Solving for Uy, Initial residual = 0.00355112, Final residual = 0.00020557, No Iterations 2
DILUPBiCGStab:  Solving for Uz, Initial residual = 0.0212791, Final residual = 0.000939726, No Iterations 2
DILUPBiCGStab:  Solving for h, Initial residual = 0.0296915, Final residual = 0.000952359, No Iterations 2
GAMG:  Solving for p, Initial residual = 0.00860723, Final residual = 0.000697403, No Iterations 2
time step continuity errors : sum local = 5.86781, global = -0.861096, cumulative = -487.783
DILUPBiCGStab:  Solving for epsilon, Initial residual = 0.0061107, Final residual = 0.00057452, No Iterations 1
DILUPBiCGStab:  Solving for k, Initial residual = 0.0235535, Final residual = 0.000833274, No Iterations 2
ExecutionTime = 2.25 s  ClockTime = 3 s

Time = 35s

DILUPBiCGStab:  Solving for Ux, Initial residual = 0.00310958, Final residual = 0.000119177, No Iterations 2
DILUPBiCGStab:  Solving for Uy, Initial residual = 0.00340128, Final residual = 0.00019635, No Iterations 2
DILUPBiCGStab:  Solving for Uz, Initial residual = 0.0204703, Final residual = 0.000889911, No Iterations 2
DILUPBiCGStab:  Solving for h, Initial residual = 0.0282287, Final residual = 0.000895445, No Iterations 2
GAMG:  Solving for p, Initial residual = 0.00800103, Final residual = 0.000654102, No Iterations 2
time step continuity errors : sum local = 5.25345, global = -0.4029, cumulative = -488.186
DILUPBiCGStab:  Solving for epsilon, Initial residual = 0.00582479, Final residual = 0.000548693, No Iterations 1
DILUPBiCGStab:  Solving for k, Initial residual = 0.0227403, Final residual = 0.000805469, No Iterations 2
ExecutionTime = 2.3 s  ClockTime = 3 s

Time = 36s

DILUPBiCGStab:  Solving for Ux, Initial residual = 0.00299105, Final residual = 0.00011485, No Iterations 2
DILUPBiCGStab:  Solving for Uy, Initial residual = 0.00325964, Final residual = 0.000194554, No Iterations 2
DILUPBiCGStab:  Solving for Uz, Initial residual = 0.0197253, Final residual = 0.000859238, No Iterations 2
DILUPBiCGStab:  Solving for h, Initial residual = 0.0268108, Final residual = 0.00084795, No Iterations 2
GAMG:  Solving for p, Initial residual = 0.0074219, Final residual = 0.000615395, No Iterations 2
time step continuity errors : sum local = 4.70972, global = 0.047859, cumulative = -488.138
DILUPBiCGStab:  Solving for epsilon, Initial residual = 0.00556054, Final residual = 0.000513919, No Iterations 1
DILUPBiCGStab:  Solving for k, Initial residual = 0.0219294, Final residual = 0.000794582, No Iterations 2
ExecutionTime = 2.34 s  ClockTime = 3 s

Time = 37s

DILUPBiCGStab:  Solving for Ux, Initial residual = 0.00288194, Final residual = 0.000110019, No Iterations 2
DILUPBiCGStab:  Solving for Uy, Initial residual = 0.00312151, Final residual = 0.000199865, No Iterations 2
DILUPBiCGStab:  Solving for Uz, Initial residual = 0.0190539, Final residual = 0.000835617, No Iterations 2
DILUPBiCGStab:  Solving for h, Initial residual = 0.0254407, Final residual = 0.000809606, No Iterations 2
GAMG:  Solving for p, Initial residual = 0.00686201, Final residual = 0.000585596, No Iterations 2
time step continuity errors : sum local = 4.24502, global = 0.450965, cumulative = -487.687
DILUPBiCGStab:  Solving for epsilon, Initial residual = 0.0053137, Final residual = 0.000492142, No Iterations 1
DILUPBiCGStab:  Solving for k, Initial residual = 0.0211268, Final residual = 0.00203067, No Iterations 1
ExecutionTime = 2.39 s  ClockTime = 3 s

Time = 38s

DILUPBiCGStab:  Solving for Ux, Initial residual = 0.00278923, Final residual = 0.000104657, No Iterations 2
DILUPBiCGStab:  Solving for Uy, Initial residual = 0.00300419, Final residual = 0.000227543, No Iterations 2
DILUPBiCGStab:  Solving for Uz, Initial residual = 0.0184834, Final residual = 0.000818097, No Iterations 2
DILUPBiCGStab:  Solving for h, Initial residual = 0.0241056, Final residual = 0.000776734, No Iterations 2
GAMG:  Solving for p, Initial residual = 0.00635267, Final residual = 0.000567859, No Iterations 2
time step continuity errors : sum local = 3.86831, global = 0.785276, cumulative = -486.902
DILUPBiCGStab:  Solving for epsilon, Initial residual = 0.00508918, Final residual = 0.000483651, No Iterations 1
DILUPBiCGStab:  Solving for k, Initial residual = 0.0206268, Final residual = 0.000129904, No Iterations 3
ExecutionTime = 2.44 s  ClockTime = 3 s

Time = 39s

DILUPBiCGStab:  Solving for Ux, Initial residual = 0.00271076, Final residual = 9.96576e-05, No Iterations 2
DILUPBiCGStab:  Solving for Uy, Initial residual = 0.00287875, Final residual = 0.000238566, No Iterations 2
DILUPBiCGStab:  Solving for Uz, Initial residual = 0.0179272, Final residual = 0.000790162, No Iterations 2
DILUPBiCGStab:  Solving for h, Initial residual = 0.022821, Final residual = 0.000744939, No Iterations 2
GAMG:  Solving for p, Initial residual = 0.00582734, Final residual = 0.000536818, No Iterations 2
time step continuity errors : sum local = 3.44757, global = 1.02458, cumulative = -485.877
DILUPBiCGStab:  Solving for epsilon, Initial residual = 0.00486954, Final residual = 0.000480983, No Iterations 1
DILUPBiCGStab:  Solving for k, Initial residual = 0.0197127, Final residual = 0.000983949, No Iterations 2
ExecutionTime = 2.49 s  ClockTime = 3 s

Time = 40s

DILUPBiCGStab:  Solving for Ux, Initial residual = 0.00263994, Final residual = 9.48625e-05, No Iterations 2
DILUPBiCGStab:  Solving for Uy, Initial residual = 0.00276004, Final residual = 0.000261399, No Iterations 2
DILUPBiCGStab:  Solving for Uz, Initial residual = 0.0173192, Final residual = 0.000756862, No Iterations 2
DILUPBiCGStab:  Solving for h, Initial residual = 0.0215958, Final residual = 0.000714913, No Iterations 2
GAMG:  Solving for p, Initial residual = 0.0053347, Final residual = 0.000500165, No Iterations 2
time step continuity errors : sum local = 3.18685, global = 1.19315, cumulative = -484.684
DILUPBiCGStab:  Solving for epsilon, Initial residual = 0.00462207, Final residual = 0.00018762, No Iterations 2
DILUPBiCGStab:  Solving for k, Initial residual = 0.0189949, Final residual = 0.000686489, No Iterations 2
ExecutionTime = 2.54 s  ClockTime = 3 s

Time = 41s

DILUPBiCGStab:  Solving for Ux, Initial residual = 0.00257887, Final residual = 9.06769e-05, No Iterations 2
DILUPBiCGStab:  Solving for Uy, Initial residual = 0.00265269, Final residual = 0.00010225, No Iterations 2
DILUPBiCGStab:  Solving for Uz, Initial residual = 0.0167865, Final residual = 0.000721291, No Iterations 2
DILUPBiCGStab:  Solving for h, Initial residual = 0.0204525, Final residual = 0.000688082, No Iterations 2
GAMG:  Solving for p, Initial residual = 0.00492962, Final residual = 0.000462817, No Iterations 2
time step continuity errors : sum local = 3.11888, global = 1.3061, cumulative = -483.378
DILUPBiCGStab:  Solving for epsilon, Initial residual = 0.00437946, Final residual = 0.000152333, No Iterations 2
DILUPBiCGStab:  Solving for k, Initial residual = 0.0183104, Final residual = 0.000780659, No Iterations 2
ExecutionTime = 2.59 s  ClockTime = 3 s

Time = 42s

DILUPBiCGStab:  Solving for Ux, Initial residual = 0.00251513, Final residual = 8.76658e-05, No Iterations 2
DILUPBiCGStab:  Solving for Uy, Initial residual = 0.00252684, Final residual = 0.000104901, No Iterations 2
DILUPBiCGStab:  Solving for Uz, Initial residual = 0.0162741, Final residual = 0.000686819, No Iterations 2
DILUPBiCGStab:  Solving for h, Initial residual = 0.0193777, Final residual = 0.000663577, No Iterations 2
GAMG:  Solving for p, Initial residual = 0.00453814, Final residual = 0.000420171, No Iterations 2
time step continuity errors : sum local = 3.00912, global = 1.39691, cumulative = -481.981
DILUPBiCGStab:  Solving for epsilon, Initial residual = 0.00415849, Final residual = 0.000141217, No Iterations 2
DILUPBiCGStab:  Solving for k, Initial residual = 0.0176785, Final residual = 0.000869786, No Iterations 2
ExecutionTime = 2.64 s  ClockTime = 3 s

Time = 43s

DILUPBiCGStab:  Solving for Ux, Initial residual = 0.00244797, Final residual = 8.47061e-05, No Iterations 2
DILUPBiCGStab:  Solving for Uy, Initial residual = 0.00242116, Final residual = 0.000183178, No Iterations 2
DILUPBiCGStab:  Solving for Uz, Initial residual = 0.0157458, Final residual = 0.000654563, No Iterations 2
DILUPBiCGStab:  Solving for h, Initial residual = 0.0183898, Final residual = 0.000650338, No Iterations 2
GAMG:  Solving for p, Initial residual = 0.00414177, Final residual = 0.000391321, No Iterations 2
time step continuity errors : sum local = 2.94789, global = 1.43004, cumulative = -480.551
DILUPBiCGStab:  Solving for epsilon, Initial residual = 0.00394951, Final residual = 0.000151027, No Iterations 2
DILUPBiCGStab:  Solving for k, Initial residual = 0.0170757, Final residual = 0.00095991, No Iterations 2
ExecutionTime = 2.69 s  ClockTime = 3 s

Time = 44s

DILUPBiCGStab:  Solving for Ux, Initial residual = 0.00237855, Final residual = 8.22544e-05, No Iterations 2
DILUPBiCGStab:  Solving for Uy, Initial residual = 0.00233263, Final residual = 0.000159144, No Iterations 2
DILUPBiCGStab:  Solving for Uz, Initial residual = 0.0152003, Final residual = 0.000620539, No Iterations 2
DILUPBiCGStab:  Solving for h, Initial residual = 0.0174767, Final residual = 0.000631798, No Iterations 2
GAMG:  Solving for p, Initial residual = 0.00378556, Final residual = 0.00035355, No Iterations 2
time step continuity errors : sum local = 2.8145, global = 1.43557, cumulative = -479.115
DILUPBiCGStab:  Solving for epsilon, Initial residual = 0.00375359, Final residual = 0.000222773, No Iterations 2
DILUPBiCGStab:  Solving for k, Initial residual = 0.0164938, Final residual = 0.00101313, No Iterations 2
ExecutionTime = 2.74 s  ClockTime = 3 s

Time = 45s

DILUPBiCGStab:  Solving for Ux, Initial residual = 0.00230225, Final residual = 7.97646e-05, No Iterations 2
DILUPBiCGStab:  Solving for Uy, Initial residual = 0.00222685, Final residual = 0.000147695, No Iterations 2
DILUPBiCGStab:  Solving for Uz, Initial residual = 0.0146446, Final residual = 0.000585577, No Iterations 2
DILUPBiCGStab:  Solving for h, Initial residual = 0.0166365, Final residual = 0.000617565, No Iterations 2
GAMG:  Solving for p, Initial residual = 0.00344962, Final residual = 0.000309565, No Iterations 2
time step continuity errors : sum local = 2.63809, global = 1.42389, cumulative = -477.692
DILUPBiCGStab:  Solving for epsilon, Initial residual = 0.00357495, Final residual = 2.15919e-05, No Iterations 3
DILUPBiCGStab:  Solving for k, Initial residual = 0.0159369, Final residual = 0.00101557, No Iterations 2
ExecutionTime = 2.8 s  ClockTime = 3 s

Time = 46s

DILUPBiCGStab:  Solving for Ux, Initial residual = 0.0022199, Final residual = 7.67808e-05, No Iterations 2
DILUPBiCGStab:  Solving for Uy, Initial residual = 0.00211721, Final residual = 0.000137189, No Iterations 2
DILUPBiCGStab:  Solving for Uz, Initial residual = 0.0140491, Final residual = 0.000547443, No Iterations 2
DILUPBiCGStab:  Solving for h, Initial residual = 0.0158659, Final residual = 0.000604069, No Iterations 2
GAMG:  Solving for p, Initial residual = 0.00312729, Final residual = 0.000264674, No Iterations 2
time step continuity errors : sum local = 2.44531, global = 1.42827, cumulative = -476.263
DILUPBiCGStab:  Solving for epsilon, Initial residual = 0.00338117, Final residual = 0.00011377, No Iterations 2
DILUPBiCGStab:  Solving for k, Initial residual = 0.0154151, Final residual = 0.000964821, No Iterations 2
ExecutionTime = 2.85 s  ClockTime = 3 s

Time = 47s

DILUPBiCGStab:  Solving for Ux, Initial residual = 0.0021323, Final residual = 7.31807e-05, No Iterations 2
DILUPBiCGStab:  Solving for Uy, Initial residual = 0.00200852, Final residual = 0.000128108, No Iterations 2
DILUPBiCGStab:  Solving for Uz, Initial residual = 0.0134119, Final residual = 0.000503463, No Iterations 2
DILUPBiCGStab:  Solving for h, Initial residual = 0.0151674, Final residual = 0.000587666, No Iterations 2
GAMG:  Solving for p, Initial residual = 0.00283624, Final residual = 0.000243969, No Iterations 2
time step continuity errors : sum local = 2.38457, global = 1.43217, cumulative = -474.831
DILUPBiCGStab:  Solving for epsilon, Initial residual = 0.0032182, Final residual = 0.000321386, No Iterations 1
DILUPBiCGStab:  Solving for k, Initial residual = 0.0149246, Final residual = 0.000878848, No Iterations 2
ExecutionTime = 2.9 s  ClockTime = 3 s

Time = 48s

DILUPBiCGStab:  Solving for Ux, Initial residual = 0.00204551, Final residual = 6.91861e-05, No Iterations 2
DILUPBiCGStab:  Solving for Uy, Initial residual = 0.0019058, Final residual = 0.000123914, No Iterations 2
DILUPBiCGStab:  Solving for Uz, Initial residual = 0.012745, Final residual = 0.000456933, No Iterations 2
DILUPBiCGStab:  Solving for h, Initial residual = 0.0145245, Final residual = 0.000559549, No Iterations 2
GAMG:  Solving for p, Initial residual = 0.00256657, Final residual = 0.000214459, No Iterations 2
time step continuity errors : sum local = 2.20578, global = 1.40227, cumulative = -473.429
DILUPBiCGStab:  Solving for epsilon, Initial residual = 0.00305678, Final residual = 0.000300779, No Iterations 1
DILUPBiCGStab:  Solving for k, Initial residual = 0.014465, Final residual = 0.000798783, No Iterations 2
ExecutionTime = 2.95 s  ClockTime = 3 s

Time = 49s

DILUPBiCGStab:  Solving for Ux, Initial residual = 0.00194609, Final residual = 6.41231e-05, No Iterations 2
DILUPBiCGStab:  Solving for Uy, Initial residual = 0.00179831, Final residual = 0.000116615, No Iterations 2
DILUPBiCGStab:  Solving for Uz, Initial residual = 0.0120669, Final residual = 0.00041077, No Iterations 2
DILUPBiCGStab:  Solving for h, Initial residual = 0.0139321, Final residual = 0.000512589, No Iterations 2
GAMG:  Solving for p, Initial residual = 0.0023296, Final residual = 0.000204302, No Iterations 2
time step continuity errors : sum local = 2.17106, global = 1.38568, cumulative = -472.043
DILUPBiCGStab:  Solving for epsilon, Initial residual = 0.0029214, Final residual = 0.000274611, No Iterations 1
DILUPBiCGStab:  Solving for k, Initial residual = 0.0140201, Final residual = 0.000743534, No Iterations 2
ExecutionTime = 3 s  ClockTime = 3 s

Time = 50s

DILUPBiCGStab:  Solving for Ux, Initial residual = 0.00185405, Final residual = 5.97234e-05, No Iterations 2
DILUPBiCGStab:  Solving for Uy, Initial residual = 0.00169546, Final residual = 0.00011003, No Iterations 2
DILUPBiCGStab:  Solving for Uz, Initial residual = 0.0113958, Final residual = 0.00112969, No Iterations 1
DILUPBiCGStab:  Solving for h, Initial residual = 0.0133878, Final residual = 0.000452963, No Iterations 2
GAMG:  Solving for p, Initial residual = 0.00212746, Final residual = 0.000183242, No Iterations 2
time step continuity errors : sum local = 2.01285, global = 1.33214, cumulative = -470.711
DILUPBiCGStab:  Solving for epsilon, Initial residual = 0.00280048, Final residual = 0.000253288, No Iterations 1
DILUPBiCGStab:  Solving for k, Initial residual = 0.0135933, Final residual = 0.000626459, No Iterations 2
ExecutionTime = 3.05 s  ClockTime = 3 s

Time = 51s

DILUPBiCGStab:  Solving for Ux, Initial residual = 0.00175474, Final residual = 5.518e-05, No Iterations 2
DILUPBiCGStab:  Solving for Uy, Initial residual = 0.00159553, Final residual = 0.000103104, No Iterations 2
DILUPBiCGStab:  Solving for Uz, Initial residual = 0.010736, Final residual = 0.00102977, No Iterations 1
DILUPBiCGStab:  Solving for h, Initial residual = 0.0128847, Final residual = 0.000403349, No Iterations 2
GAMG:  Solving for p, Initial residual = 0.00193944, Final residual = 0.000173762, No Iterations 2
time step continuity errors : sum local = 1.94673, global = 1.29079, cumulative = -469.42
DILUPBiCGStab:  Solving for epsilon, Initial residual = 0.00268324, Final residual = 0.000236432, No Iterations 1
DILUPBiCGStab:  Solving for k, Initial residual = 0.0131731, Final residual = 0.00055176, No Iterations 2
ExecutionTime = 3.1 s  ClockTime = 4 s

Time = 52s

DILUPBiCGStab:  Solving for Ux, Initial residual = 0.00166264, Final residual = 5.14909e-05, No Iterations 2
DILUPBiCGStab:  Solving for Uy, Initial residual = 0.00150019, Final residual = 9.25344e-05, No Iterations 2
DILUPBiCGStab:  Solving for Uz, Initial residual = 0.0100811, Final residual = 0.000944627, No Iterations 1
DILUPBiCGStab:  Solving for h, Initial residual = 0.0124283, Final residual = 0.00036861, No Iterations 2
GAMG:  Solving for p, Initial residual = 0.00176973, Final residual = 0.000167042, No Iterations 2
time step continuity errors : sum local = 1.88497, global = 1.2273, cumulative = -468.193
DILUPBiCGStab:  Solving for epsilon, Initial residual = 0.00256796, Final residual = 0.000223582, No Iterations 1
DILUPBiCGStab:  Solving for k, Initial residual = 0.0127579, Final residual = 0.0012304, No Iterations 1
ExecutionTime = 3.15 s  ClockTime = 4 s

Time = 53s

DILUPBiCGStab:  Solving for Ux, Initial residual = 0.00158274, Final residual = 4.84115e-05, No Iterations 2
DILUPBiCGStab:  Solving for Uy, Initial residual = 0.0014157, Final residual = 8.52848e-05, No Iterations 2
DILUPBiCGStab:  Solving for Uz, Initial residual = 0.00947483, Final residual = 0.00088187, No Iterations 1
DILUPBiCGStab:  Solving for h, Initial residual = 0.0120166, Final residual = 0.0011859, No Iterations 1
GAMG:  Solving for p, Initial residual = 0.00162769, Final residual = 0.000121071, No Iterations 3
time step continuity errors : sum local = 1.63779, global = 1.19937, cumulative = -466.994
DILUPBiCGStab:  Solving for epsilon, Initial residual = 0.00247701, Final residual = 0.000217016, No Iterations 1
DILUPBiCGStab:  Solving for k, Initial residual = 0.012397, Final residual = 0.000777808, No Iterations 2
ExecutionTime = 3.21 s  ClockTime = 4 s

Time = 54s

DILUPBiCGStab:  Solving for Ux, Initial residual = 0.00151598, Final residual = 4.56309e-05, No Iterations 2
DILUPBiCGStab:  Solving for Uy, Initial residual = 0.00134397, Final residual = 7.84545e-05, No Iterations 2
DILUPBiCGStab:  Solving for Uz, Initial residual = 0.00889167, Final residual = 0.000827797, No Iterations 1
DILUPBiCGStab:  Solving for h, Initial residual = 0.011687, Final residual = 0.00113947, No Iterations 1
GAMG:  Solving for p, Initial residual = 0.00145389, Final residual = 0.000137251, No Iterations 2
time step continuity errors : sum local = 1.66353, global = 1.13303, cumulative = -465.861
DILUPBiCGStab:  Solving for epsilon, Initial residual = 0.00236442, Final residual = 0.000209637, No Iterations 1
DILUPBiCGStab:  Solving for k, Initial residual = 0.011965, Final residual = 0.00118671, No Iterations 1
ExecutionTime = 3.26 s  ClockTime = 4 s

Time = 55s

DILUPBiCGStab:  Solving for Ux, Initial residual = 0.00144602, Final residual = 4.27595e-05, No Iterations 2
DILUPBiCGStab:  Solving for Uy, Initial residual = 0.00126284, Final residual = 6.78746e-05, No Iterations 2
DILUPBiCGStab:  Solving for Uz, Initial residual = 0.00834032, Final residual = 0.000778884, No Iterations 1
DILUPBiCGStab:  Solving for h, Initial residual = 0.0113715, Final residual = 0.00108335, No Iterations 1
GAMG:  Solving for p, Initial residual = 0.00138394, Final residual = 0.000124329, No Iterations 3
time step continuity errors : sum local = 1.56967, global = 1.08755, cumulative = -464.773
DILUPBiCGStab:  Solving for epsilon, Initial residual = 0.00225974, Final residual = 0.000204027, No Iterations 1
DILUPBiCGStab:  Solving for k, Initial residual = 0.0115883, Final residual = 0.00069859, No Iterations 2
ExecutionTime = 3.31 s  ClockTime = 4 s

Time = 56s

DILUPBiCGStab:  Solving for Ux, Initial residual = 0.00139762, Final residual = 0.000139373, No Iterations 1
DILUPBiCGStab:  Solving for Uy, Initial residual = 0.00120156, Final residual = 6.38771e-05, No Iterations 2
DILUPBiCGStab:  Solving for Uz, Initial residual = 0.00785047, Final residual = 0.000738158, No Iterations 1
DILUPBiCGStab:  Solving for h, Initial residual = 0.0111209, Final residual = 0.00104152, No Iterations 1
GAMG:  Solving for p, Initial residual = 0.00132507, Final residual = 0.000102264, No Iterations 3
time step continuity errors : sum local = 1.39905, global = 0.998574, cumulative = -463.774
DILUPBiCGStab:  Solving for epsilon, Initial residual = 0.00213774, Final residual = 0.000196028, No Iterations 1
DILUPBiCGStab:  Solving for k, Initial residual = 0.0111313, Final residual = 0.000514967, No Iterations 2
ExecutionTime = 3.37 s  ClockTime = 4 s

Time = 57s

DILUPBiCGStab:  Solving for Ux, Initial residual = 0.00135663, Final residual = 0.000132882, No Iterations 1
DILUPBiCGStab:  Solving for Uy, Initial residual = 0.0011398, Final residual = 5.89937e-05, No Iterations 2
DILUPBiCGStab:  Solving for Uz, Initial residual = 0.00742156, Final residual = 0.000703338, No Iterations 1
DILUPBiCGStab:  Solving for h, Initial residual = 0.0108601, Final residual = 0.00100931, No Iterations 1
GAMG:  Solving for p, Initial residual = 0.00123397, Final residual = 0.000107265, No Iterations 3
time step continuity errors : sum local = 1.39115, global = 0.943474, cumulative = -462.831
DILUPBiCGStab:  Solving for epsilon, Initial residual = 0.00201598, Final residual = 0.00018739, No Iterations 1
DILUPBiCGStab:  Solving for k, Initial residual = 0.0106907, Final residual = 0.000619722, No Iterations 2
ExecutionTime = 3.42 s  ClockTime = 4 s

Time = 58s

DILUPBiCGStab:  Solving for Ux, Initial residual = 0.00131329, Final residual = 0.000127321, No Iterations 1
DILUPBiCGStab:  Solving for Uy, Initial residual = 0.00107575, Final residual = 5.44288e-05, No Iterations 2
DILUPBiCGStab:  Solving for Uz, Initial residual = 0.00699908, Final residual = 0.000669422, No Iterations 1
DILUPBiCGStab:  Solving for h, Initial residual = 0.0106488, Final residual = 0.00098365, No Iterations 1
GAMG:  Solving for p, Initial residual = 0.00116535, Final residual = 0.000114002, No Iterations 3
time step continuity errors : sum local = 1.36987, global = 0.896466, cumulative = -461.934
DILUPBiCGStab:  Solving for epsilon, Initial residual = 0.0019045, Final residual = 0.000177803, No Iterations 1
DILUPBiCGStab:  Solving for k, Initial residual = 0.010261, Final residual = 0.00064287, No Iterations 2
ExecutionTime = 3.47 s  ClockTime = 4 s

Time = 59s

DILUPBiCGStab:  Solving for Ux, Initial residual = 0.00127612, Final residual = 0.000122701, No Iterations 1
DILUPBiCGStab:  Solving for Uy, Initial residual = 0.00102047, Final residual = 4.99216e-05, No Iterations 2
DILUPBiCGStab:  Solving for Uz, Initial residual = 0.00659547, Final residual = 0.000630582, No Iterations 1
DILUPBiCGStab:  Solving for h, Initial residual = 0.0104591, Final residual = 0.000961047, No Iterations 1
GAMG:  Solving for p, Initial residual = 0.00110256, Final residual = 9.13158e-05, No Iterations 4
time step continuity errors : sum local = 1.20105, global = 0.863745, cumulative = -461.071
DILUPBiCGStab:  Solving for epsilon, Initial residual = 0.00179755, Final residual = 0.000164966, No Iterations 1
DILUPBiCGStab:  Solving for k, Initial residual = 0.00983313, Final residual = 0.000605996, No Iterations 2
ExecutionTime = 3.53 s  ClockTime = 4 s

Time = 60s

DILUPBiCGStab:  Solving for Ux, Initial residual = 0.0012501, Final residual = 0.000119496, No Iterations 1
DILUPBiCGStab:  Solving for Uy, Initial residual = 0.000973912, Final residual = 4.65642e-05, No Iterations 2
DILUPBiCGStab:  Solving for Uz, Initial residual = 0.00624172, Final residual = 0.00059342, No Iterations 1
DILUPBiCGStab:  Solving for h, Initial residual = 0.0102903, Final residual = 0.000938471, No Iterations 1
GAMG:  Solving for p, Initial residual = 0.00102751, Final residual = 8.36892e-05, No Iterations 3
time step continuity errors : sum local = 1.11542, global = 0.776259, cumulative = -460.294
DILUPBiCGStab:  Solving for epsilon, Initial residual = 0.00169829, Final residual = 0.000149956, No Iterations 1
DILUPBiCGStab:  Solving for k, Initial residual = 0.00940635, Final residual = 0.000376354, No Iterations 2
ExecutionTime = 3.59 s  ClockTime = 4 s

Time = 61s

DILUPBiCGStab:  Solving for Ux, Initial residual = 0.00121014, Final residual = 0.000115003, No Iterations 1
DILUPBiCGStab:  Solving for Uy, Initial residual = 0.000922577, Final residual = 4.33574e-05, No Iterations 2
DILUPBiCGStab:  Solving for Uz, Initial residual = 0.00592266, Final residual = 0.000549034, No Iterations 1
DILUPBiCGStab:  Solving for h, Initial residual = 0.0101243, Final residual = 0.000912134, No Iterations 1
GAMG:  Solving for p, Initial residual = 0.000979764, Final residual = 8.88715e-05, No Iterations 4
time step continuity errors : sum local = 1.10546, global = 0.741424, cumulative = -459.553
DILUPBiCGStab:  Solving for epsilon, Initial residual = 0.00157679, Final residual = 0.000130489, No Iterations 1
DILUPBiCGStab:  Solving for k, Initial residual = 0.00895433, Final residual = 0.000869205, No Iterations 1
ExecutionTime = 3.65 s  ClockTime = 4 s

Time = 62s

DILUPBiCGStab:  Solving for Ux, Initial residual = 0.00118449, Final residual = 0.000112268, No Iterations 1
DILUPBiCGStab:  Solving for Uy, Initial residual = 0.000883458, Final residual = 4.55857e-05, No Iterations 2
DILUPBiCGStab:  Solving for Uz, Initial residual = 0.00564615, Final residual = 0.000520236, No Iterations 1
DILUPBiCGStab:  Solving for h, Initial residual = 0.00995957, Final residual = 0.000884947, No Iterations 1
GAMG:  Solving for p, Initial residual = 0.000920002, Final residual = 8.79113e-05, No Iterations 3
time step continuity errors : sum local = 1.0614, global = 0.686061, cumulative = -458.867
DILUPBiCGStab:  Solving for epsilon, Initial residual = 0.00150578, Final residual = 0.000120305, No Iterations 1
DILUPBiCGStab:  Solving for k, Initial residual = 0.00854888, Final residual = 0.000845004, No Iterations 1
ExecutionTime = 3.7 s  ClockTime = 4 s

Time = 63s

DILUPBiCGStab:  Solving for Ux, Initial residual = 0.00114803, Final residual = 0.000108495, No Iterations 1
DILUPBiCGStab:  Solving for Uy, Initial residual = 0.000840935, Final residual = 4.39013e-05, No Iterations 2
DILUPBiCGStab:  Solving for Uz, Initial residual = 0.00537875, Final residual = 0.00047901, No Iterations 1
DILUPBiCGStab:  Solving for h, Initial residual = 0.00978685, Final residual = 0.000854252, No Iterations 1
GAMG:  Solving for p, Initial residual = 0.000883939, Final residual = 8.31662e-05, No Iterations 4
time step continuity errors : sum local = 1.00009, global = 0.665701, cumulative = -458.201
DILUPBiCGStab:  Solving for epsilon, Initial residual = 0.0014371, Final residual = 0.000111074, No Iterations 1
DILUPBiCGStab:  Solving for k, Initial residual = 0.00812629, Final residual = 0.000749385, No Iterations 1
ExecutionTime = 3.77 s  ClockTime = 4 s

Time = 64s

DILUPBiCGStab:  Solving for Ux, Initial residual = 0.00112313, Final residual = 0.000105907, No Iterations 1
DILUPBiCGStab:  Solving for Uy, Initial residual = 0.000809001, Final residual = 4.49089e-05, No Iterations 2
DILUPBiCGStab:  Solving for Uz, Initial residual = 0.00513114, Final residual = 0.000447016, No Iterations 1
DILUPBiCGStab:  Solving for h, Initial residual = 0.00959958, Final residual = 0.000820959, No Iterations 1
GAMG:  Solving for p, Initial residual = 0.000832651, Final residual = 8.24693e-05, No Iterations 3
time step continuity errors : sum local = 0.966141, global = 0.626983, cumulative = -457.574
DILUPBiCGStab:  Solving for epsilon, Initial residual = 0.00136622, Final residual = 0.000102495, No Iterations 1
DILUPBiCGStab:  Solving for k, Initial residual = 0.00770216, Final residual = 0.000657365, No Iterations 1
ExecutionTime = 3.82 s  ClockTime = 4 s

Time = 65s

DILUPBiCGStab:  Solving for Ux, Initial residual = 0.00108425, Final residual = 0.000101905, No Iterations 1
DILUPBiCGStab:  Solving for Uy, Initial residual = 0.000771236, Final residual = 4.51079e-05, No Iterations 2
DILUPBiCGStab:  Solving for Uz, Initial residual = 0.00488579, Final residual = 0.000414123, No Iterations 1
DILUPBiCGStab:  Solving for h, Initial residual = 0.00939575, Final residual = 0.000785492, No Iterations 1
GAMG:  Solving for p, Initial residual = 0.00080071, Final residual = 6.85635e-05, No Iterations 5
time step continuity errors : sum local = 0.848985, global = 0.61484, cumulative = -456.959
DILUPBiCGStab:  Solving for epsilon, Initial residual = 0.00129118, Final residual = 9.47733e-05, No Iterations 1
DILUPBiCGStab:  Solving for k, Initial residual = 0.00727745, Final residual = 0.000588121, No Iterations 1
ExecutionTime = 3.88 s  ClockTime = 4 s

Time = 66s

DILUPBiCGStab:  Solving for Ux, Initial residual = 0.00106499, Final residual = 9.97291e-05, No Iterations 1
DILUPBiCGStab:  Solving for Uy, Initial residual = 0.000747967, Final residual = 4.40472e-05, No Iterations 2
DILUPBiCGStab:  Solving for Uz, Initial residual = 0.00464931, Final residual = 0.000386913, No Iterations 1
DILUPBiCGStab:  Solving for h, Initial residual = 0.00916414, Final residual = 0.000748567, No Iterations 1
GAMG:  Solving for p, Initial residual = 0.000755808, Final residual = 6.06815e-05, No Iterations 3
time step continuity errors : sum local = 0.790248, global = 0.546029, cumulative = -456.413
DILUPBiCGStab:  Solving for epsilon, Initial residual = 0.00121701, Final residual = 8.88761e-05, No Iterations 1
DILUPBiCGStab:  Solving for k, Initial residual = 0.00685685, Final residual = 0.000531639, No Iterations 1
ExecutionTime = 3.94 s  ClockTime = 4 s

Time = 67s

DILUPBiCGStab:  Solving for Ux, Initial residual = 0.0010179, Final residual = 9.46259e-05, No Iterations 1
DILUPBiCGStab:  Solving for Uy, Initial residual = 0.000710622, Final residual = 4.16863e-05, No Iterations 2
DILUPBiCGStab:  Solving for Uz, Initial residual = 0.00441424, Final residual = 0.000359778, No Iterations 1
DILUPBiCGStab:  Solving for h, Initial residual = 0.00890584, Final residual = 0.000709541, No Iterations 1
GAMG:  Solving for p, Initial residual = 0.000738265, Final residual = 6.57054e-05, No Iterations 5
time step continuity errors : sum local = 0.782219, global = 0.523918, cumulative = -455.89
DILUPBiCGStab:  Solving for epsilon, Initial residual = 0.00114373, Final residual = 8.44304e-05, No Iterations 1
DILUPBiCGStab:  Solving for k, Initial residual = 0.00645262, Final residual = 0.000488059, No Iterations 1
ExecutionTime = 4 s  ClockTime = 4 s

Time = 68s

DILUPBiCGStab:  Solving for Ux, Initial residual = 0.000991243, Final residual = 9.15393e-05, No Iterations 1
DILUPBiCGStab:  Solving for Uy, Initial residual = 0.000693349, Final residual = 3.95977e-05, No Iterations 2
DILUPBiCGStab:  Solving for Uz, Initial residual = 0.00417778, Final residual = 0.000336333, No Iterations 1
DILUPBiCGStab:  Solving for h, Initial residual = 0.00859728, Final residual = 0.000668645, No Iterations 1
GAMG:  Solving for p, Initial residual = 0.000696199, Final residual = 6.33336e-05, No Iterations 3
time step continuity errors : sum local = 0.756323, global = 0.4933, cumulative = -455.396
DILUPBiCGStab:  Solving for epsilon, Initial residual = 0.00107362, Final residual = 8.09799e-05, No Iterations 1
DILUPBiCGStab:  Solving for k, Initial residual = 0.00606257, Final residual = 0.000458952, No Iterations 1
ExecutionTime = 4.05 s  ClockTime = 4 s

Time = 69s

DILUPBiCGStab:  Solving for Ux, Initial residual = 0.000944705, Final residual = 8.6283e-05, No Iterations 1
DILUPBiCGStab:  Solving for Uy, Initial residual = 0.000659439, Final residual = 3.49282e-05, No Iterations 2
DILUPBiCGStab:  Solving for Uz, Initial residual = 0.00393305, Final residual = 0.000311306, No Iterations 1
DILUPBiCGStab:  Solving for h, Initial residual = 0.0082542, Final residual = 0.000626369, No Iterations 1
GAMG:  Solving for p, Initial residual = 0.000682154, Final residual = 5.93459e-05, No Iterations 5
time step continuity errors : sum local = 0.70064, global = 0.477943, cumulative = -454.918
DILUPBiCGStab:  Solving for epsilon, Initial residual = 0.00100622, Final residual = 7.72949e-05, No Iterations 1
DILUPBiCGStab:  Solving for k, Initial residual = 0.00568553, Final residual = 0.000441171, No Iterations 1
ExecutionTime = 4.11 s  ClockTime = 5 s

Time = 70s

DILUPBiCGStab:  Solving for Ux, Initial residual = 0.000915358, Final residual = 8.28411e-05, No Iterations 1
DILUPBiCGStab:  Solving for Uy, Initial residual = 0.000643662, Final residual = 3.22465e-05, No Iterations 2
DILUPBiCGStab:  Solving for Uz, Initial residual = 0.00369746, Final residual = 0.000289847, No Iterations 1
DILUPBiCGStab:  Solving for h, Initial residual = 0.00785459, Final residual = 0.000583279, No Iterations 1
GAMG:  Solving for p, Initial residual = 0.000648365, Final residual = 5.67704e-05, No Iterations 3
time step continuity errors : sum local = 0.680542, global = 0.448891, cumulative = -454.469
DILUPBiCGStab:  Solving for epsilon, Initial residual = 0.000943577, Final residual = 7.36338e-05, No Iterations 1
DILUPBiCGStab:  Solving for k, Initial residual = 0.00531729, Final residual = 0.000425084, No Iterations 1
ExecutionTime = 4.17 s  ClockTime = 5 s

Time = 71s

DILUPBiCGStab:  Solving for Ux, Initial residual = 0.000867752, Final residual = 7.7637e-05, No Iterations 1
DILUPBiCGStab:  Solving for Uy, Initial residual = 0.000610486, Final residual = 2.80078e-05, No Iterations 2
DILUPBiCGStab:  Solving for Uz, Initial residual = 0.00345059, Final residual = 0.000266723, No Iterations 1
DILUPBiCGStab:  Solving for h, Initial residual = 0.00743026, Final residual = 0.000539697, No Iterations 1
GAMG:  Solving for p, Initial residual = 0.000637063, Final residual = 5.79612e-05, No Iterations 5
time step continuity errors : sum local = 0.66048, global = 0.441438, cumulative = -454.028
DILUPBiCGStab:  Solving for epsilon, Initial residual = 0.000885698, Final residual = 6.98244e-05, No Iterations 1
DILUPBiCGStab:  Solving for k, Initial residual = 0.00497318, Final residual = 0.000409764, No Iterations 1
ExecutionTime = 4.23 s  ClockTime = 5 s

Time = 72s

DILUPBiCGStab:  Solving for Ux, Initial residual = 0.000832739, Final residual = 7.41252e-05, No Iterations 1
DILUPBiCGStab:  Solving for Uy, Initial residual = 0.000594949, Final residual = 2.65908e-05, No Iterations 2
DILUPBiCGStab:  Solving for Uz, Initial residual = 0.00321775, Final residual = 0.000247414, No Iterations 1
DILUPBiCGStab:  Solving for h, Initial residual = 0.00696454, Final residual = 0.00049588, No Iterations 1
GAMG:  Solving for p, Initial residual = 0.00060254, Final residual = 5.26503e-05, No Iterations 3
time step continuity errors : sum local = 0.627566, global = 0.421177, cumulative = -453.607
DILUPBiCGStab:  Solving for epsilon, Initial residual = 0.000832011, Final residual = 6.60472e-05, No Iterations 1
DILUPBiCGStab:  Solving for k, Initial residual = 0.00464717, Final residual = 0.00039463, No Iterations 1
ExecutionTime = 4.28 s  ClockTime = 5 s

Time = 73s

DILUPBiCGStab:  Solving for Ux, Initial residual = 0.000786777, Final residual = 6.95553e-05, No Iterations 1
DILUPBiCGStab:  Solving for Uy, Initial residual = 0.000562822, Final residual = 2.36941e-05, No Iterations 2
DILUPBiCGStab:  Solving for Uz, Initial residual = 0.00297044, Final residual = 0.000226197, No Iterations 1
DILUPBiCGStab:  Solving for h, Initial residual = 0.00649149, Final residual = 0.000453056, No Iterations 1
GAMG:  Solving for p, Initial residual = 0.000592214, Final residual = 5.06533e-05, No Iterations 5
time step continuity errors : sum local = 0.594192, global = 0.402973, cumulative = -453.204
DILUPBiCGStab:  Solving for epsilon, Initial residual = 0.000783663, Final residual = 6.22338e-05, No Iterations 1
DILUPBiCGStab:  Solving for k, Initial residual = 0.00434667, Final residual = 0.000380223, No Iterations 1
ExecutionTime = 4.34 s  ClockTime = 5 s

Time = 74s

DILUPBiCGStab:  Solving for Ux, Initial residual = 0.000749935, Final residual = 6.6389e-05, No Iterations 1
DILUPBiCGStab:  Solving for Uy, Initial residual = 0.000546711, Final residual = 2.30511e-05, No Iterations 2
DILUPBiCGStab:  Solving for Uz, Initial residual = 0.00274359, Final residual = 0.000209342, No Iterations 1
DILUPBiCGStab:  Solving for h, Initial residual = 0.00599688, Final residual = 0.000412333, No Iterations 1
GAMG:  Solving for p, Initial residual = 0.000561336, Final residual = 5.08996e-05, No Iterations 3
time step continuity errors : sum local = 0.596152, global = 0.39241, cumulative = -452.811
DILUPBiCGStab:  Solving for epsilon, Initial residual = 0.000739465, Final residual = 5.84094e-05, No Iterations 1
DILUPBiCGStab:  Solving for k, Initial residual = 0.00406677, Final residual = 0.000364239, No Iterations 1
ExecutionTime = 4.39 s  ClockTime = 5 s

Time = 75s

DILUPBiCGStab:  Solving for Ux, Initial residual = 0.000703334, Final residual = 6.22016e-05, No Iterations 1
DILUPBiCGStab:  Solving for Uy, Initial residual = 0.000514515, Final residual = 2.08925e-05, No Iterations 2
DILUPBiCGStab:  Solving for Uz, Initial residual = 0.00250939, Final residual = 0.000191031, No Iterations 1
DILUPBiCGStab:  Solving for h, Initial residual = 0.00551534, Final residual = 0.00037429, No Iterations 1
GAMG:  Solving for p, Initial residual = 0.00055131, Final residual = 4.90021e-05, No Iterations 5
time step continuity errors : sum local = 0.568917, global = 0.380883, cumulative = -452.431
DILUPBiCGStab:  Solving for epsilon, Initial residual = 0.000700487, Final residual = 5.46276e-05, No Iterations 1
DILUPBiCGStab:  Solving for k, Initial residual = 0.00381236, Final residual = 0.000345254, No Iterations 1
ExecutionTime = 4.46 s  ClockTime = 5 s

Time = 76s

DILUPBiCGStab:  Solving for Ux, Initial residual = 0.000666735, Final residual = 5.9354e-05, No Iterations 1
DILUPBiCGStab:  Solving for Uy, Initial residual = 0.000499156, Final residual = 2.08297e-05, No Iterations 2
DILUPBiCGStab:  Solving for Uz, Initial residual = 0.00230428, Final residual = 0.000176686, No Iterations 1
DILUPBiCGStab:  Solving for h, Initial residual = 0.00503057, Final residual = 0.000340465, No Iterations 1
GAMG:  Solving for p, Initial residual = 0.000517455, Final residual = 4.79887e-05, No Iterations 3
time step continuity errors : sum local = 0.56567, global = 0.375232, cumulative = -452.055
DILUPBiCGStab:  Solving for epsilon, Initial residual = 0.000664469, Final residual = 5.09723e-05, No Iterations 1
DILUPBiCGStab:  Solving for k, Initial residual = 0.00357717, Final residual = 0.000320475, No Iterations 1
ExecutionTime = 4.51 s  ClockTime = 5 s

Time = 77s

DILUPBiCGStab:  Solving for Ux, Initial residual = 0.000623544, Final residual = 5.56069e-05, No Iterations 1
DILUPBiCGStab:  Solving for Uy, Initial residual = 0.000468179, Final residual = 1.90265e-05, No Iterations 2
DILUPBiCGStab:  Solving for Uz, Initial residual = 0.00209282, Final residual = 0.000160032, No Iterations 1
DILUPBiCGStab:  Solving for h, Initial residual = 0.00457276, Final residual = 0.000310484, No Iterations 1
GAMG:  Solving for p, Initial residual = 0.000509091, Final residual = 4.58331e-05, No Iterations 5
time step continuity errors : sum local = 0.538856, global = 0.359083, cumulative = -451.696
DILUPBiCGStab:  Solving for epsilon, Initial residual = 0.00063267, Final residual = 4.75242e-05, No Iterations 1
DILUPBiCGStab:  Solving for k, Initial residual = 0.00336386, Final residual = 0.000291014, No Iterations 1
ExecutionTime = 4.58 s  ClockTime = 5 s

Time = 78s

DILUPBiCGStab:  Solving for Ux, Initial residual = 0.000588242, Final residual = 5.28211e-05, No Iterations 1
DILUPBiCGStab:  Solving for Uy, Initial residual = 0.000453215, Final residual = 1.92439e-05, No Iterations 2
DILUPBiCGStab:  Solving for Uz, Initial residual = 0.00190985, Final residual = 0.000147167, No Iterations 1
DILUPBiCGStab:  Solving for h, Initial residual = 0.00412759, Final residual = 0.000284697, No Iterations 1
GAMG:  Solving for p, Initial residual = 0.000476514, Final residual = 4.64237e-05, No Iterations 3
time step continuity errors : sum local = 0.546034, global = 0.36144, cumulative = -451.335
DILUPBiCGStab:  Solving for epsilon, Initial residual = 0.000602264, Final residual = 4.42986e-05, No Iterations 1
DILUPBiCGStab:  Solving for k, Initial residual = 0.00316633, Final residual = 0.000260035, No Iterations 1
ExecutionTime = 4.63 s  ClockTime = 5 s

Time = 79s

DILUPBiCGStab:  Solving for Ux, Initial residual = 0.000548553, Final residual = 4.94083e-05, No Iterations 1
DILUPBiCGStab:  Solving for Uy, Initial residual = 0.000423795, Final residual = 1.76101e-05, No Iterations 2
DILUPBiCGStab:  Solving for Uz, Initial residual = 0.00172233, Final residual = 0.000131904, No Iterations 1
DILUPBiCGStab:  Solving for h, Initial residual = 0.00371767, Final residual = 0.000261059, No Iterations 1
GAMG:  Solving for p, Initial residual = 0.00046933, Final residual = 4.31894e-05, No Iterations 5
time step continuity errors : sum local = 0.518248, global = 0.351469, cumulative = -450.983
DILUPBiCGStab:  Solving for epsilon, Initial residual = 0.000574648, Final residual = 4.13011e-05, No Iterations 1
DILUPBiCGStab:  Solving for k, Initial residual = 0.0029859, Final residual = 0.000232752, No Iterations 1
ExecutionTime = 4.69 s  ClockTime = 5 s

Time = 80s

DILUPBiCGStab:  Solving for Ux, Initial residual = 0.00051749, Final residual = 4.69501e-05, No Iterations 1
DILUPBiCGStab:  Solving for Uy, Initial residual = 0.000409724, Final residual = 1.8341e-05, No Iterations 2
DILUPBiCGStab:  Solving for Uz, Initial residual = 0.00156848, Final residual = 0.000120827, No Iterations 1
DILUPBiCGStab:  Solving for h, Initial residual = 0.00333064, Final residual = 0.000240102, No Iterations 1
GAMG:  Solving for p, Initial residual = 0.00043532, Final residual = 3.3847e-05, No Iterations 4
time step continuity errors : sum local = 0.472648, global = 0.346548, cumulative = -450.637
DILUPBiCGStab:  Solving for epsilon, Initial residual = 0.000547569, Final residual = 3.86597e-05, No Iterations 1
DILUPBiCGStab:  Solving for k, Initial residual = 0.00281789, Final residual = 0.000210645, No Iterations 1
ExecutionTime = 4.75 s  ClockTime = 5 s

Time = 81s

DILUPBiCGStab:  Solving for Ux, Initial residual = 0.000485305, Final residual = 4.43161e-05, No Iterations 1
DILUPBiCGStab:  Solving for Uy, Initial residual = 0.000386067, Final residual = 1.74302e-05, No Iterations 2
DILUPBiCGStab:  Solving for Uz, Initial residual = 0.00141416, Final residual = 0.000108357, No Iterations 1
DILUPBiCGStab:  Solving for h, Initial residual = 0.00298087, Final residual = 0.000220167, No Iterations 1
GAMG:  Solving for p, Initial residual = 0.000424587, Final residual = 4.1408e-05, No Iterations 4
time step continuity errors : sum local = 0.511626, global = 0.339216, cumulative = -450.298
DILUPBiCGStab:  Solving for epsilon, Initial residual = 0.000522456, Final residual = 3.6432e-05, No Iterations 1
DILUPBiCGStab:  Solving for k, Initial residual = 0.00266075, Final residual = 0.000192203, No Iterations 1
ExecutionTime = 4.81 s  ClockTime = 5 s

Time = 82s

DILUPBiCGStab:  Solving for Ux, Initial residual = 0.00045298, Final residual = 4.16507e-05, No Iterations 1
DILUPBiCGStab:  Solving for Uy, Initial residual = 0.000366472, Final residual = 1.71905e-05, No Iterations 2
DILUPBiCGStab:  Solving for Uz, Initial residual = 0.00127836, Final residual = 9.78595e-05, No Iterations 1
DILUPBiCGStab:  Solving for h, Initial residual = 0.0026658, Final residual = 0.000202146, No Iterations 1
GAMG:  Solving for p, Initial residual = 0.000403749, Final residual = 3.893e-05, No Iterations 4
time step continuity errors : sum local = 0.494815, global = 0.335258, cumulative = -449.962
DILUPBiCGStab:  Solving for epsilon, Initial residual = 0.000498271, Final residual = 3.45378e-05, No Iterations 1
DILUPBiCGStab:  Solving for k, Initial residual = 0.0025133, Final residual = 0.00017563, No Iterations 1
ExecutionTime = 4.87 s  ClockTime = 5 s

Time = 83s

DILUPBiCGStab:  Solving for Ux, Initial residual = 0.000425951, Final residual = 3.95151e-05, No Iterations 1
DILUPBiCGStab:  Solving for Uy, Initial residual = 0.000349318, Final residual = 1.70422e-05, No Iterations 2
DILUPBiCGStab:  Solving for Uz, Initial residual = 0.00115536, Final residual = 8.89245e-05, No Iterations 1
DILUPBiCGStab:  Solving for h, Initial residual = 0.00238537, Final residual = 0.000185716, No Iterations 1
GAMG:  Solving for p, Initial residual = 0.000386425, Final residual = 3.59178e-05, No Iterations 4
time step continuity errors : sum local = 0.476494, global = 0.33323, cumulative = -449.629
DILUPBiCGStab:  Solving for epsilon, Initial residual = 0.000475369, Final residual = 3.30524e-05, No Iterations 1
DILUPBiCGStab:  Solving for k, Initial residual = 0.00237356, Final residual = 0.000161331, No Iterations 1
ExecutionTime = 4.93 s  ClockTime = 5 s

Time = 84s

DILUPBiCGStab:  Solving for Ux, Initial residual = 0.000400673, Final residual = 3.74607e-05, No Iterations 1
DILUPBiCGStab:  Solving for Uy, Initial residual = 0.00033166, Final residual = 1.68018e-05, No Iterations 2
DILUPBiCGStab:  Solving for Uz, Initial residual = 0.00104798, Final residual = 8.1937e-05, No Iterations 1
DILUPBiCGStab:  Solving for h, Initial residual = 0.00214124, Final residual = 0.000170912, No Iterations 1
GAMG:  Solving for p, Initial residual = 0.000372909, Final residual = 3.53801e-05, No Iterations 4
time step continuity errors : sum local = 0.472422, global = 0.33197, cumulative = -449.297
DILUPBiCGStab:  Solving for epsilon, Initial residual = 0.000453845, Final residual = 3.17577e-05, No Iterations 1
DILUPBiCGStab:  Solving for k, Initial residual = 0.0022397, Final residual = 0.00015031, No Iterations 1
ExecutionTime = 4.99 s  ClockTime = 5 s

Time = 85s

DILUPBiCGStab:  Solving for Ux, Initial residual = 0.000377032, Final residual = 3.55231e-05, No Iterations 1
DILUPBiCGStab:  Solving for Uy, Initial residual = 0.000314966, Final residual = 1.66936e-05, No Iterations 2
DILUPBiCGStab:  Solving for Uz, Initial residual = 0.000952581, Final residual = 7.64735e-05, No Iterations 1
DILUPBiCGStab:  Solving for h, Initial residual = 0.00193109, Final residual = 0.000157815, No Iterations 1
GAMG:  Solving for p, Initial residual = 0.000358927, Final residual = 3.38881e-05, No Iterations 4
time step continuity errors : sum local = 0.461957, global = 0.328367, cumulative = -448.969
DILUPBiCGStab:  Solving for epsilon, Initial residual = 0.000433463, Final residual = 3.05211e-05, No Iterations 1
DILUPBiCGStab:  Solving for k, Initial residual = 0.00211023, Final residual = 0.000142373, No Iterations 1
ExecutionTime = 5.05 s  ClockTime = 5 s

Time = 86s

DILUPBiCGStab:  Solving for Ux, Initial residual = 0.000355327, Final residual = 3.37434e-05, No Iterations 1
DILUPBiCGStab:  Solving for Uy, Initial residual = 0.000299668, Final residual = 1.65544e-05, No Iterations 2
DILUPBiCGStab:  Solving for Uz, Initial residual = 0.000868328, Final residual = 7.20657e-05, No Iterations 1
DILUPBiCGStab:  Solving for h, Initial residual = 0.00175213, Final residual = 0.000146268, No Iterations 1
GAMG:  Solving for p, Initial residual = 0.000346668, Final residual = 3.28465e-05, No Iterations 4
time step continuity errors : sum local = 0.453221, global = 0.317137, cumulative = -448.652
DILUPBiCGStab:  Solving for epsilon, Initial residual = 0.000414378, Final residual = 2.93635e-05, No Iterations 1
DILUPBiCGStab:  Solving for k, Initial residual = 0.0019834, Final residual = 0.000135717, No Iterations 1
ExecutionTime = 5.11 s  ClockTime = 6 s

Time = 87s

DILUPBiCGStab:  Solving for Ux, Initial residual = 0.000334974, Final residual = 3.20565e-05, No Iterations 1
DILUPBiCGStab:  Solving for Uy, Initial residual = 0.000285154, Final residual = 1.62306e-05, No Iterations 2
DILUPBiCGStab:  Solving for Uz, Initial residual = 0.000794668, Final residual = 6.84539e-05, No Iterations 1
DILUPBiCGStab:  Solving for h, Initial residual = 0.00159998, Final residual = 0.000135929, No Iterations 1
[...]
DILUPBiCGStab:  Solving for Uy, Initial residual = 5.01332e-05, Final residual = 2.30963e-06, No Iterations 2
DILUPBiCGStab:  Solving for Uz, Initial residual = 0.000225898, Final residual = 7.57131e-06, No Iterations 2
DILUPBiCGStab:  Solving for h, Initial residual = 0.000157818, Final residual = 1.55555e-05, No Iterations 1
GAMG:  Solving for p, Initial residual = 6.87378e-05, Final residual = 5.11016e-06, No Iterations 3
time step continuity errors : sum local = 0.0891734, global = 0.0615362, cumulative = -441.706
DILUPBiCGStab:  Solving for epsilon, Initial residual = 0.00011288, Final residual = 7.55178e-06, No Iterations 1
DILUPBiCGStab:  Solving for k, Initial residual = 0.000441121, Final residual = 3.09889e-05, No Iterations 1
ExecutionTime = 7.34 s  ClockTime = 8 s

Time = 124s

DILUPBiCGStab:  Solving for Ux, Initial residual = 4.09454e-05, Final residual = 1.41639e-06, No Iterations 2
DILUPBiCGStab:  Solving for Uy, Initial residual = 4.74266e-05, Final residual = 2.17625e-06, No Iterations 2
DILUPBiCGStab:  Solving for Uz, Initial residual = 0.000219828, Final residual = 7.3806e-06, No Iterations 2
DILUPBiCGStab:  Solving for h, Initial residual = 0.000149859, Final residual = 1.48e-05, No Iterations 1
GAMG:  Solving for p, Initial residual = 6.38748e-05, Final residual = 5.89747e-06, No Iterations 2
time step continuity errors : sum local = 0.0864534, global = 0.056299, cumulative = -441.649
DILUPBiCGStab:  Solving for epsilon, Initial residual = 0.000106604, Final residual = 7.11687e-06, No Iterations 1
DILUPBiCGStab:  Solving for k, Initial residual = 0.000418286, Final residual = 2.92662e-05, No Iterations 1
ExecutionTime = 7.39 s  ClockTime = 8 s

Time = 125s

DILUPBiCGStab:  Solving for Ux, Initial residual = 3.8585e-05, Final residual = 1.32272e-06, No Iterations 2
DILUPBiCGStab:  Solving for Uy, Initial residual = 4.4769e-05, Final residual = 2.02023e-06, No Iterations 2
DILUPBiCGStab:  Solving for Uz, Initial residual = 0.000212074, Final residual = 6.93191e-06, No Iterations 2
DILUPBiCGStab:  Solving for h, Initial residual = 0.000142655, Final residual = 1.39965e-05, No Iterations 1
GAMG:  Solving for p, Initial residual = 6.11211e-05, Final residual = 4.2095e-06, No Iterations 3
time step continuity errors : sum local = 0.0762607, global = 0.0530946, cumulative = -441.596
DILUPBiCGStab:  Solving for epsilon, Initial residual = 0.000100578, Final residual = 6.6923e-06, No Iterations 1
DILUPBiCGStab:  Solving for k, Initial residual = 0.000395947, Final residual = 2.75872e-05, No Iterations 1
ExecutionTime = 7.45 s  ClockTime = 8 s

Time = 126s

DILUPBiCGStab:  Solving for Ux, Initial residual = 3.63814e-05, Final residual = 1.22953e-06, No Iterations 2
DILUPBiCGStab:  Solving for Uy, Initial residual = 4.23891e-05, Final residual = 1.91194e-06, No Iterations 2
DILUPBiCGStab:  Solving for Uz, Initial residual = 0.000205909, Final residual = 6.75632e-06, No Iterations 2
DILUPBiCGStab:  Solving for h, Initial residual = 0.000135141, Final residual = 1.30818e-05, No Iterations 1
GAMG:  Solving for p, Initial residual = 5.65069e-05, Final residual = 4.58552e-06, No Iterations 2
time step continuity errors : sum local = 0.0720036, global = 0.0482641, cumulative = -441.548
DILUPBiCGStab:  Solving for epsilon, Initial residual = 9.47419e-05, Final residual = 6.28946e-06, No Iterations 1
DILUPBiCGStab:  Solving for k, Initial residual = 0.000374698, Final residual = 2.59993e-05, No Iterations 1
ExecutionTime = 7.5 s  ClockTime = 8 s

Time = 127s

DILUPBiCGStab:  Solving for Ux, Initial residual = 3.44515e-05, Final residual = 1.15185e-06, No Iterations 2
DILUPBiCGStab:  Solving for Uy, Initial residual = 4.00234e-05, Final residual = 1.77855e-06, No Iterations 2
DILUPBiCGStab:  Solving for Uz, Initial residual = 0.000198387, Final residual = 6.34293e-06, No Iterations 2
DILUPBiCGStab:  Solving for h, Initial residual = 0.000128407, Final residual = 1.2394e-05, No Iterations 1
GAMG:  Solving for p, Initial residual = 5.40417e-05, Final residual = 5.3274e-06, No Iterations 2
time step continuity errors : sum local = 0.0722581, global = 0.0439018, cumulative = -441.504
DILUPBiCGStab:  Solving for epsilon, Initial residual = 8.91469e-05, Final residual = 5.90023e-06, No Iterations 1
DILUPBiCGStab:  Solving for k, Initial residual = 0.00035407, Final residual = 2.44683e-05, No Iterations 1
ExecutionTime = 7.55 s  ClockTime = 8 s

Time = 128s

DILUPBiCGStab:  Solving for Ux, Initial residual = 3.24193e-05, Final residual = 1.06707e-06, No Iterations 2
DILUPBiCGStab:  Solving for Uy, Initial residual = 3.78352e-05, Final residual = 1.66108e-06, No Iterations 2
DILUPBiCGStab:  Solving for Uz, Initial residual = 0.00019145, Final residual = 6.07103e-06, No Iterations 2
DILUPBiCGStab:  Solving for h, Initial residual = 0.000121959, Final residual = 1.17388e-05, No Iterations 1
GAMG:  Solving for p, Initial residual = 5.1229e-05, Final residual = 3.7282e-06, No Iterations 3
time step continuity errors : sum local = 0.0628274, global = 0.0408545, cumulative = -441.463
DILUPBiCGStab:  Solving for epsilon, Initial residual = 8.38267e-05, Final residual = 5.53117e-06, No Iterations 1
DILUPBiCGStab:  Solving for k, Initial residual = 0.000334114, Final residual = 2.29873e-05, No Iterations 1
ExecutionTime = 7.6 s  ClockTime = 8 s

Time = 129s

DILUPBiCGStab:  Solving for Ux, Initial residual = 3.06069e-05, Final residual = 9.90026e-07, No Iterations 2
DILUPBiCGStab:  Solving for Uy, Initial residual = 3.57279e-05, Final residual = 1.57302e-06, No Iterations 2
DILUPBiCGStab:  Solving for Uz, Initial residual = 0.000186194, Final residual = 5.92976e-06, No Iterations 2
DILUPBiCGStab:  Solving for h, Initial residual = 0.000115961, Final residual = 1.10894e-05, No Iterations 1
GAMG:  Solving for p, Initial residual = 4.73534e-05, Final residual = 3.85314e-06, No Iterations 2
time step continuity errors : sum local = 0.0583908, global = 0.0371611, cumulative = -441.426
DILUPBiCGStab:  Solving for epsilon, Initial residual = 7.86778e-05, Final residual = 5.17857e-06, No Iterations 1
DILUPBiCGStab:  Solving for k, Initial residual = 0.000315236, Final residual = 2.16007e-05, No Iterations 1
ExecutionTime = 7.65 s  ClockTime = 8 s

Time = 130s

DILUPBiCGStab:  Solving for Ux, Initial residual = 2.89726e-05, Final residual = 9.26436e-07, No Iterations 2
DILUPBiCGStab:  Solving for Uy, Initial residual = 3.36806e-05, Final residual = 1.45855e-06, No Iterations 2
DILUPBiCGStab:  Solving for Uz, Initial residual = 0.000179003, Final residual = 1.78238e-05, No Iterations 1
DILUPBiCGStab:  Solving for h, Initial residual = 0.000111068, Final residual = 1.06379e-05, No Iterations 1
GAMG:  Solving for p, Initial residual = 4.44256e-05, Final residual = 4.10776e-06, No Iterations 2
time step continuity errors : sum local = 0.0566892, global = 0.0339041, cumulative = -441.392
DILUPBiCGStab:  Solving for epsilon, Initial residual = 7.37535e-05, Final residual = 4.83849e-06, No Iterations 1
DILUPBiCGStab:  Solving for k, Initial residual = 0.000297, Final residual = 2.02768e-05, No Iterations 1
ExecutionTime = 7.7 s  ClockTime = 8 s

Time = 131s

DILUPBiCGStab:  Solving for Ux, Initial residual = 2.73662e-05, Final residual = 8.62562e-07, No Iterations 2
DILUPBiCGStab:  Solving for Uy, Initial residual = 3.18761e-05, Final residual = 1.36355e-06, No Iterations 2
DILUPBiCGStab:  Solving for Uz, Initial residual = 0.000174691, Final residual = 1.69322e-05, No Iterations 1
DILUPBiCGStab:  Solving for h, Initial residual = 0.000106458, Final residual = 1.02243e-05, No Iterations 1
GAMG:  Solving for p, Initial residual = 4.22005e-05, Final residual = 4.00995e-06, No Iterations 2
time step continuity errors : sum local = 0.0535888, global = 0.0304867, cumulative = -441.362
DILUPBiCGStab:  Solving for epsilon, Initial residual = 6.90756e-05, Final residual = 4.51899e-06, No Iterations 1
DILUPBiCGStab:  Solving for k, Initial residual = 0.000279543, Final residual = 1.90094e-05, No Iterations 1
ExecutionTime = 7.75 s  ClockTime = 8 s

Time = 132s

DILUPBiCGStab:  Solving for Ux, Initial residual = 2.59787e-05, Final residual = 8.04186e-07, No Iterations 2
DILUPBiCGStab:  Solving for Uy, Initial residual = 3.00884e-05, Final residual = 1.27853e-06, No Iterations 2
DILUPBiCGStab:  Solving for Uz, Initial residual = 0.000169025, Final residual = 1.61068e-05, No Iterations 1
DILUPBiCGStab:  Solving for h, Initial residual = 0.00010214, Final residual = 9.8314e-06, No Iterations 1
GAMG:  Solving for p, Initial residual = 3.98768e-05, Final residual = 3.98427e-06, No Iterations 2
time step continuity errors : sum local = 0.0508389, global = 0.0274702, cumulative = -441.334
DILUPBiCGStab:  Solving for epsilon, Initial residual = 6.46306e-05, Final residual = 4.21734e-06, No Iterations 1
DILUPBiCGStab:  Solving for k, Initial residual = 0.00026289, Final residual = 1.78056e-05, No Iterations 1
ExecutionTime = 7.8 s  ClockTime = 8 s

Time = 133s

DILUPBiCGStab:  Solving for Ux, Initial residual = 2.46035e-05, Final residual = 7.4741e-07, No Iterations 2
DILUPBiCGStab:  Solving for Uy, Initial residual = 2.83298e-05, Final residual = 1.19352e-06, No Iterations 2
DILUPBiCGStab:  Solving for Uz, Initial residual = 0.00016287, Final residual = 1.53603e-05, No Iterations 1
DILUPBiCGStab:  Solving for h, Initial residual = 9.82651e-05, Final residual = 9.4818e-06, No Iterations 1
GAMG:  Solving for p, Initial residual = 3.76345e-05, Final residual = 3.73567e-06, No Iterations 2
time step continuity errors : sum local = 0.0471711, global = 0.0249509, cumulative = -441.309
DILUPBiCGStab:  Solving for epsilon, Initial residual = 6.04035e-05, Final residual = 3.9305e-06, No Iterations 1
DILUPBiCGStab:  Solving for k, Initial residual = 0.000246988, Final residual = 1.66651e-05, No Iterations 1
ExecutionTime = 7.84 s  ClockTime = 9 s

Time = 134s

DILUPBiCGStab:  Solving for Ux, Initial residual = 2.33535e-05, Final residual = 6.97572e-07, No Iterations 2
DILUPBiCGStab:  Solving for Uy, Initial residual = 2.66806e-05, Final residual = 1.11369e-06, No Iterations 2
DILUPBiCGStab:  Solving for Uz, Initial residual = 0.000156593, Final residual = 1.46443e-05, No Iterations 1
DILUPBiCGStab:  Solving for h, Initial residual = 9.48003e-05, Final residual = 9.16701e-06, No Iterations 1
GAMG:  Solving for p, Initial residual = 3.53172e-05, Final residual = 3.38046e-06, No Iterations 2
time step continuity errors : sum local = 0.04304, global = 0.0227197, cumulative = -441.286
DILUPBiCGStab:  Solving for epsilon, Initial residual = 5.63909e-05, Final residual = 3.65913e-06, No Iterations 1
DILUPBiCGStab:  Solving for k, Initial residual = 0.000231839, Final residual = 1.55867e-05, No Iterations 1
ExecutionTime = 7.89 s  ClockTime = 9 s

Time = 135s

DILUPBiCGStab:  Solving for Ux, Initial residual = 2.22355e-05, Final residual = 6.53592e-07, No Iterations 2
DILUPBiCGStab:  Solving for Uy, Initial residual = 2.51449e-05, Final residual = 1.04021e-06, No Iterations 2
DILUPBiCGStab:  Solving for Uz, Initial residual = 0.000150348, Final residual = 1.39474e-05, No Iterations 1
DILUPBiCGStab:  Solving for h, Initial residual = 9.1715e-05, Final residual = 8.87753e-06, No Iterations 1
GAMG:  Solving for p, Initial residual = 3.30501e-05, Final residual = 3.09165e-06, No Iterations 2
time step continuity errors : sum local = 0.0393638, global = 0.0206319, cumulative = -441.266
DILUPBiCGStab:  Solving for epsilon, Initial residual = 5.25909e-05, Final residual = 3.40392e-06, No Iterations 1
DILUPBiCGStab:  Solving for k, Initial residual = 0.000217426, Final residual = 1.45678e-05, No Iterations 1
ExecutionTime = 7.94 s  ClockTime = 9 s

Time = 136s

DILUPBiCGStab:  Solving for Ux, Initial residual = 2.12016e-05, Final residual = 6.13358e-07, No Iterations 2
DILUPBiCGStab:  Solving for Uy, Initial residual = 2.36996e-05, Final residual = 9.71416e-07, No Iterations 2
DILUPBiCGStab:  Solving for Uz, Initial residual = 0.000144179, Final residual = 1.32715e-05, No Iterations 1
DILUPBiCGStab:  Solving for h, Initial residual = 8.89834e-05, Final residual = 8.61647e-06, No Iterations 1
GAMG:  Solving for p, Initial residual = 3.09462e-05, Final residual = 2.95176e-06, No Iterations 2
time step continuity errors : sum local = 0.0366427, global = 0.0187445, cumulative = -441.247
DILUPBiCGStab:  Solving for epsilon, Initial residual = 4.89978e-05, Final residual = 3.16426e-06, No Iterations 1
DILUPBiCGStab:  Solving for k, Initial residual = 0.00020372, Final residual = 1.36042e-05, No Iterations 1
ExecutionTime = 7.99 s  ClockTime = 9 s

Time = 137s

DILUPBiCGStab:  Solving for Ux, Initial residual = 2.02006e-05, Final residual = 5.74985e-07, No Iterations 2
DILUPBiCGStab:  Solving for Uy, Initial residual = 2.23135e-05, Final residual = 9.05131e-07, No Iterations 2
DILUPBiCGStab:  Solving for Uz, Initial residual = 0.000138145, Final residual = 1.26224e-05, No Iterations 1
DILUPBiCGStab:  Solving for h, Initial residual = 8.65634e-05, Final residual = 8.37877e-06, No Iterations 1
GAMG:  Solving for p, Initial residual = 2.90219e-05, Final residual = 2.23147e-06, No Iterations 3
time step continuity errors : sum local = 0.0321393, global = 0.0185918, cumulative = -441.228
DILUPBiCGStab:  Solving for epsilon, Initial residual = 4.56183e-05, Final residual = 2.93889e-06, No Iterations 1
DILUPBiCGStab:  Solving for k, Initial residual = 0.000190648, Final residual = 1.26865e-05, No Iterations 1
ExecutionTime = 8.04 s  ClockTime = 9 s

Time = 138s

DILUPBiCGStab:  Solving for Ux, Initial residual = 1.92284e-05, Final residual = 5.41441e-07, No Iterations 2
DILUPBiCGStab:  Solving for Uy, Initial residual = 2.10445e-05, Final residual = 8.49825e-07, No Iterations 2
DILUPBiCGStab:  Solving for Uz, Initial residual = 0.000132559, Final residual = 1.20807e-05, No Iterations 1
DILUPBiCGStab:  Solving for h, Initial residual = 8.44163e-05, Final residual = 8.13196e-06, No Iterations 1
GAMG:  Solving for p, Initial residual = 2.66898e-05, Final residual = 1.77177e-06, No Iterations 2
time step continuity errors : sum local = 0.0269283, global = 0.0166235, cumulative = -441.212
DILUPBiCGStab:  Solving for epsilon, Initial residual = 4.2408e-05, Final residual = 2.72769e-06, No Iterations 1
DILUPBiCGStab:  Solving for k, Initial residual = 0.000178349, Final residual = 1.1833e-05, No Iterations 1
ExecutionTime = 8.09 s  ClockTime = 9 s

Time = 139s

DILUPBiCGStab:  Solving for Ux, Initial residual = 1.85446e-05, Final residual = 5.159e-07, No Iterations 2
DILUPBiCGStab:  Solving for Uy, Initial residual = 1.97617e-05, Final residual = 7.92593e-07, No Iterations 2
DILUPBiCGStab:  Solving for Uz, Initial residual = 0.000126229, Final residual = 1.1338e-05, No Iterations 1
DILUPBiCGStab:  Solving for h, Initial residual = 8.25867e-05, Final residual = 7.93808e-06, No Iterations 1
GAMG:  Solving for p, Initial residual = 2.52052e-05, Final residual = 2.25996e-06, No Iterations 2
time step continuity errors : sum local = 0.0277587, global = 0.0146447, cumulative = -441.197
DILUPBiCGStab:  Solving for epsilon, Initial residual = 3.93923e-05, Final residual = 2.52897e-06, No Iterations 1
DILUPBiCGStab:  Solving for k, Initial residual = 0.000166672, Final residual = 1.10214e-05, No Iterations 1
ExecutionTime = 8.13 s  ClockTime = 9 s

Time = 140s

DILUPBiCGStab:  Solving for Ux, Initial residual = 1.759e-05, Final residual = 4.81359e-07, No Iterations 2
DILUPBiCGStab:  Solving for Uy, Initial residual = 1.85782e-05, Final residual = 7.30635e-07, No Iterations 2
DILUPBiCGStab:  Solving for Uz, Initial residual = 0.000120462, Final residual = 1.07597e-05, No Iterations 1
DILUPBiCGStab:  Solving for h, Initial residual = 8.0946e-05, Final residual = 7.76703e-06, No Iterations 1
GAMG:  Solving for p, Initial residual = 2.39407e-05, Final residual = 2.35151e-06, No Iterations 2
time step continuity errors : sum local = 0.0270581, global = 0.0125164, cumulative = -441.185
DILUPBiCGStab:  Solving for epsilon, Initial residual = 3.65694e-05, Final residual = 2.34359e-06, No Iterations 1
DILUPBiCGStab:  Solving for k, Initial residual = 0.000155569, Final residual = 1.02482e-05, No Iterations 1
ExecutionTime = 8.18 s  ClockTime = 9 s

Time = 141s

DILUPBiCGStab:  Solving for Ux, Initial residual = 1.67882e-05, Final residual = 4.53566e-07, No Iterations 2
DILUPBiCGStab:  Solving for Uy, Initial residual = 1.74415e-05, Final residual = 6.82059e-07, No Iterations 2
DILUPBiCGStab:  Solving for Uz, Initial residual = 0.000114999, Final residual = 1.02274e-05, No Iterations 1
DILUPBiCGStab:  Solving for h, Initial residual = 7.94463e-05, Final residual = 7.54826e-06, No Iterations 1
GAMG:  Solving for p, Initial residual = 2.24016e-05, Final residual = 1.89807e-06, No Iterations 3
time step continuity errors : sum local = 0.0238775, global = 0.0115578, cumulative = -441.173
DILUPBiCGStab:  Solving for epsilon, Initial residual = 3.39301e-05, Final residual = 2.16977e-06, No Iterations 1
DILUPBiCGStab:  Solving for k, Initial residual = 0.000145056, Final residual = 9.51283e-06, No Iterations 1
ExecutionTime = 8.23 s  ClockTime = 9 s

Time = 142s

DILUPBiCGStab:  Solving for Ux, Initial residual = 1.6028e-05, Final residual = 4.29465e-07, No Iterations 2
DILUPBiCGStab:  Solving for Uy, Initial residual = 1.63858e-05, Final residual = 6.39774e-07, No Iterations 2
DILUPBiCGStab:  Solving for Uz, Initial residual = 0.000110032, Final residual = 9.77033e-06, No Iterations 1
DILUPBiCGStab:  Solving for h, Initial residual = 7.79549e-05, Final residual = 7.30163e-06, No Iterations 1
GAMG:  Solving for p, Initial residual = 2.05406e-05, Final residual = 1.76733e-06, No Iterations 2
time step continuity errors : sum local = 0.0212975, global = 0.0102906, cumulative = -441.163
DILUPBiCGStab:  Solving for epsilon, Initial residual = 3.14244e-05, Final residual = 2.0064e-06, No Iterations 1
DILUPBiCGStab:  Solving for k, Initial residual = 0.000135169, Final residual = 8.83136e-06, No Iterations 1
ExecutionTime = 8.28 s  ClockTime = 9 s

Time = 143s

DILUPBiCGStab:  Solving for Ux, Initial residual = 1.53512e-05, Final residual = 4.06268e-07, No Iterations 2
DILUPBiCGStab:  Solving for Uy, Initial residual = 1.53211e-05, Final residual = 5.92284e-07, No Iterations 2
DILUPBiCGStab:  Solving for Uz, Initial residual = 0.000104612, Final residual = 9.16877e-06, No Iterations 1
DILUPBiCGStab:  Solving for h, Initial residual = 7.68032e-05, Final residual = 7.11948e-06, No Iterations 1
GAMG:  Solving for p, Initial residual = 1.93933e-05, Final residual = 1.74922e-06, No Iterations 2
time step continuity errors : sum local = 0.0201242, global = 0.00877096, cumulative = -441.154
DILUPBiCGStab:  Solving for epsilon, Initial residual = 2.90837e-05, Final residual = 1.85281e-06, No Iterations 1
DILUPBiCGStab:  Solving for k, Initial residual = 0.000125836, Final residual = 8.18971e-06, No Iterations 1
ExecutionTime = 8.33 s  ClockTime = 9 s

Time = 144s

DILUPBiCGStab:  Solving for Ux, Initial residual = 1.46785e-05, Final residual = 3.84886e-07, No Iterations 2
DILUPBiCGStab:  Solving for Uy, Initial residual = 1.44006e-05, Final residual = 5.50601e-07, No Iterations 2
DILUPBiCGStab:  Solving for Uz, Initial residual = 9.9229e-05, Final residual = 8.64689e-06, No Iterations 1
DILUPBiCGStab:  Solving for h, Initial residual = 7.58271e-05, Final residual = 6.94382e-06, No Iterations 1
GAMG:  Solving for p, Initial residual = 1.8199e-05, Final residual = 1.67104e-06, No Iterations 3
time step continuity errors : sum local = 0.0191039, global = 0.00791468, cumulative = -441.146
DILUPBiCGStab:  Solving for epsilon, Initial residual = 2.69099e-05, Final residual = 1.71096e-06, No Iterations 1
DILUPBiCGStab:  Solving for k, Initial residual = 0.000117021, Final residual = 7.58129e-06, No Iterations 1
ExecutionTime = 8.38 s  ClockTime = 9 s


PIMPLE solution converged in 144 iterations

End

Finalising parallel run
